hash: 58afcbb2d744bd7f7ec72f93b9a076b4
/*---------------------------------------------------------------------------*\
| =========                 |                                                 |
| \\      /  F ield         | OpenFOAM: The Open Source CFD Toolbox           |
|  \\    /   O peration     | Version:  2112                                  |
|   \\  /    A nd           | Website:  www.openfoam.com                      |
|    \\/     M anipulation  |                                                 |
\*---------------------------------------------------------------------------*/
Build  : d44c8318f0-20220111 OPENFOAM=2112 version=v2112
Arch   : "LSB;label=32;scalar=64"
Exec   : icoFoam -parallel
Date   : Jan 29 2022
Time   : 23:16:18
Host   : hkn0718.localdomain
PID    : 2910153
I/O    : uncollated
Case   : /hkfs/home/project/hk-project-test-fine/eq4036/data/code/ogl_labbook/lidDrivenCavity/resolution/Variation_mesh/500/Variation_matrix_solver/BiCGStab_NoPrecond_CUDA/Variation_mpiRank/8/base
nProcs : 8
Hosts  :
(
    (hkn0718.localdomain 8)
)
Pstream initialized with:
    floatTransfer      : 0
    nProcsSimpleSum    : 0
    commsType          : nonBlocking
    polling iterations : 0
trapFpe: Floating point exception trapping enabled (FOAM_SIGFPE).
fileModificationChecking : Monitoring run-time modified files using timeStampMaster (fileModificationSkew 5, maxFileModificationPolls 20)
allowSystemOperations : Allowing user-supplied system call operations

// * * * * * * * * * * * * * * * * * * * * * * * * * * * * * * * * * * * * * //
Create time

Create mesh for time = 0


PISO: Operating solver in PISO mode

Reading transportProperties

Reading field p

Reading field U

Reading/calculating face flux field phi


Starting time loop

Time = 0.0002

Courant Number mean: 0 max: 0
DILUPBiCGStab:  Solving for Ux, Initial residual = 1, Final residual = 0.036513, No Iterations 5
DILUPBiCGStab:  Solving for Uy:  solution singularity
DILUPBiCGStab:  Solving for Uz:  solution singularity
linear solve U 11013267
[OGL LOG][Proc: 0]global_index_init : 123620 mu s
[OGL LOG][Proc: 0]global_index_init : 2 mu s
[OGL LOG][Proc: 0]global_index_init : 1 mu s
[OGL LOG][Proc: 0]global_index_init : 1 mu s
[OGL LOG][Proc: 0]init_host_sparsity_pattern : 1664499230 mu s
[OGL LOG][Proc: 0]update_host_matrix_data : 760810 mu s
[OGL LOG][Proc: 0]convert_coo_to_csr : 30446 mu s
[OGL LOG][Proc: 0]gather_initGuess : 473800 mu s
[OGL LOG][Proc: 0]gather_RHS : 422541 mu s
[OGL LOG][Proc: 0]gather_global_matrix : 6 mu s
[OGL LOG][Proc: 0]init_precond : 74 mu s
[OGL LOG][Proc: 0]generate_solver : 19 mu s
[OGL LOG][Proc: 0]solve : 208135640 mu s
[OGL LOG][Proc: 0]retrieve_result_from_device : 338047 mu s
nonecudaGKOBiCGStab:  Solving for p, Initial residual = 1, Final residual = 9.79774e-07, No Iterations 5015
linear solve p -2065945658
time step continuity errors : sum local = 2.84604e-06, global = 1.99772e-19, cumulative = 1.99772e-19
[OGL LOG][Proc: 0]global_index_init : 12144 mu s
[OGL LOG][Proc: 0]global_index_init : 3 mu s
[OGL LOG][Proc: 0]global_index_init : 2 mu s
[OGL LOG][Proc: 0]global_index_init : 1 mu s
[OGL LOG][Proc: 0]update_host_matrix_data : 658029 mu s
[OGL LOG][Proc: 0]gather_initGuess : 9 mu s
[OGL LOG][Proc: 0]gather_RHS : 423084 mu s
[OGL LOG][Proc: 0]gather_global_matrix : 0 mu s
read from registry
[OGL LOG][Proc: 0]init_precond : 21 mu s
[OGL LOG][Proc: 0]generate_solver : 1 mu s
[OGL LOG][Proc: 0]solve : 168013666 mu s
[OGL LOG][Proc: 0]retrieve_result_from_device : 341647 mu s
nonecudaGKOBiCGStab:  Solving for p, Initial residual = 0.851447, Final residual = 8.92088e-07, No Iterations 4200
linear solve p 169672615
time step continuity errors : sum local = 6.78978e-11, global = -2.18433e-22, cumulative = 1.99554e-19
ExecutionTime = 2473.69 s  ClockTime = 2479 s

Time = 0.0004

Courant Number mean: 0.0211731 max: 0.91387
DILUPBiCGStab:  Solving for Ux, Initial residual = 0.0924195, Final residual = 0.0252272, No Iterations 5
DILUPBiCGStab:  Solving for Uy, Initial residual = 0.596427, Final residual = 0.163299, No Iterations 5
DILUPBiCGStab:  Solving for Uz, Initial residual = 0.948551, Final residual = 0.333507, No Iterations 5
linear solve U 22297729
[OGL LOG][Proc: 0]global_index_init : 13333 mu s
[OGL LOG][Proc: 0]global_index_init : 3 mu s
[OGL LOG][Proc: 0]global_index_init : 2 mu s
[OGL LOG][Proc: 0]global_index_init : 1 mu s
[OGL LOG][Proc: 0]update_host_matrix_data : 654405 mu s
[OGL LOG][Proc: 0]gather_initGuess : 4 mu s
[OGL LOG][Proc: 0]gather_RHS : 424316 mu s
[OGL LOG][Proc: 0]gather_global_matrix : 0 mu s
read from registry
[OGL LOG][Proc: 0]init_precond : 10 mu s
[OGL LOG][Proc: 0]generate_solver : 1 mu s
[OGL LOG][Proc: 0]solve : 208324046 mu s
[OGL LOG][Proc: 0]retrieve_result_from_device : 342689 mu s
nonecudaGKOBiCGStab:  Solving for p, Initial residual = 0.953306, Final residual = 9.95525e-07, No Iterations 5208
linear solve p 209982910
time step continuity errors : sum local = 2.42535e-10, global = -1.99164e-22, cumulative = 1.99355e-19
[OGL LOG][Proc: 0]global_index_init : 13081 mu s
[OGL LOG][Proc: 0]global_index_init : 2 mu s
[OGL LOG][Proc: 0]global_index_init : 6 mu s
[OGL LOG][Proc: 0]global_index_init : 1 mu s
[OGL LOG][Proc: 0]update_host_matrix_data : 655281 mu s
[OGL LOG][Proc: 0]gather_initGuess : 4 mu s
[OGL LOG][Proc: 0]gather_RHS : 423220 mu s
[OGL LOG][Proc: 0]gather_global_matrix : 0 mu s
read from registry
[OGL LOG][Proc: 0]init_precond : 9 mu s
[OGL LOG][Proc: 0]generate_solver : 2 mu s
[OGL LOG][Proc: 0]solve : 257887274 mu s
[OGL LOG][Proc: 0]retrieve_result_from_device : 336686 mu s
nonecudaGKOBiCGStab:  Solving for p, Initial residual = 0.907682, Final residual = 8.16667e-07, No Iterations 6448
linear solve p 259540113
time step continuity errors : sum local = 1.87524e-10, global = -2.93949e-22, cumulative = 1.99061e-19
ExecutionTime = 2981.16 s  ClockTime = 2988 s

Time = 0.0006

Courant Number mean: 0.03469 max: 1.13986
DILUPBiCGStab:  Solving for Ux, Initial residual = 0.0603861, Final residual = 0.0140247, No Iterations 5
DILUPBiCGStab:  Solving for Uy, Initial residual = 0.466513, Final residual = 0.0790809, No Iterations 5
DILUPBiCGStab:  Solving for Uz, Initial residual = 0.870533, Final residual = 0.202567, No Iterations 5
linear solve U 22326289
[OGL LOG][Proc: 0]global_index_init : 12626 mu s
[OGL LOG][Proc: 0]global_index_init : 3 mu s
[OGL LOG][Proc: 0]global_index_init : 4 mu s
[OGL LOG][Proc: 0]global_index_init : 1 mu s
[OGL LOG][Proc: 0]update_host_matrix_data : 655098 mu s
[OGL LOG][Proc: 0]gather_initGuess : 4 mu s
[OGL LOG][Proc: 0]gather_RHS : 423134 mu s
[OGL LOG][Proc: 0]gather_global_matrix : 0 mu s
read from registry
[OGL LOG][Proc: 0]init_precond : 9 mu s
[OGL LOG][Proc: 0]generate_solver : 1 mu s
[OGL LOG][Proc: 0]solve : 236457090 mu s
[OGL LOG][Proc: 0]retrieve_result_from_device : 341098 mu s
nonecudaGKOBiCGStab:  Solving for p, Initial residual = 0.976957, Final residual = 4.65376e-07, No Iterations 5911
linear solve p 238114586
time step continuity errors : sum local = 2.93909e-10, global = -5.03484e-22, cumulative = 1.98557e-19
[OGL LOG][Proc: 0]global_index_init : 11613 mu s
[OGL LOG][Proc: 0]global_index_init : 3 mu s
[OGL LOG][Proc: 0]global_index_init : 2 mu s
[OGL LOG][Proc: 0]global_index_init : 1 mu s
[OGL LOG][Proc: 0]update_host_matrix_data : 656717 mu s
[OGL LOG][Proc: 0]gather_initGuess : 3 mu s
[OGL LOG][Proc: 0]gather_RHS : 421109 mu s
[OGL LOG][Proc: 0]gather_global_matrix : 0 mu s
read from registry
[OGL LOG][Proc: 0]init_precond : 9 mu s
[OGL LOG][Proc: 0]generate_solver : 1 mu s
[OGL LOG][Proc: 0]solve : 250187158 mu s
[OGL LOG][Proc: 0]retrieve_result_from_device : 339012 mu s
nonecudaGKOBiCGStab:  Solving for p, Initial residual = 0.937723, Final residual = 9.94512e-07, No Iterations 6254
linear solve p 251839844
time step continuity errors : sum local = 6.32928e-10, global = -6.02477e-22, cumulative = 1.97955e-19
ExecutionTime = 3509.4 s  ClockTime = 3517 s

End

Finalising parallel run
================================================================================
hash: 000fdbd9b48102aaa2c7dace4dc03d5a
/*---------------------------------------------------------------------------*\
| =========                 |                                                 |
| \\      /  F ield         | OpenFOAM: The Open Source CFD Toolbox           |
|  \\    /   O peration     | Version:  2112                                  |
|   \\  /    A nd           | Website:  www.openfoam.com                      |
|    \\/     M anipulation  |                                                 |
\*---------------------------------------------------------------------------*/
Build  : d44c8318f0-20220111 OPENFOAM=2112 version=v2112
Arch   : "LSB;label=32;scalar=64"
Exec   : icoFoam -parallel
Date   : Jan 30 2022
Time   : 00:14:58
Host   : hkn0718.localdomain
PID    : 2914936
I/O    : uncollated
Case   : /hkfs/home/project/hk-project-test-fine/eq4036/data/code/ogl_labbook/lidDrivenCavity/resolution/Variation_mesh/500/Variation_matrix_solver/CG_NoPrecond_CUDA/Variation_mpiRank/8/base
nProcs : 8
Hosts  :
(
    (hkn0718.localdomain 8)
)
Pstream initialized with:
    floatTransfer      : 0
    nProcsSimpleSum    : 0
    commsType          : nonBlocking
    polling iterations : 0
trapFpe: Floating point exception trapping enabled (FOAM_SIGFPE).
fileModificationChecking : Monitoring run-time modified files using timeStampMaster (fileModificationSkew 5, maxFileModificationPolls 20)
allowSystemOperations : Allowing user-supplied system call operations

// * * * * * * * * * * * * * * * * * * * * * * * * * * * * * * * * * * * * * //
Create time

Create mesh for time = 0


PISO: Operating solver in PISO mode

Reading transportProperties

Reading field p

Reading field U

Reading/calculating face flux field phi


Starting time loop

Time = 0.0002

Courant Number mean: 0 max: 0
DILUPBiCGStab:  Solving for Ux, Initial residual = 1, Final residual = 0.036513, No Iterations 5
DILUPBiCGStab:  Solving for Uy:  solution singularity
DILUPBiCGStab:  Solving for Uz:  solution singularity
linear solve U 10986583
[OGL LOG][Proc: 0]global_index_init : 2568 mu s
[OGL LOG][Proc: 0]global_index_init : 2 mu s
[OGL LOG][Proc: 0]global_index_init : 2 mu s
[OGL LOG][Proc: 0]global_index_init : 1 mu s
[OGL LOG][Proc: 0]init_host_sparsity_pattern : 1664338749 mu s
[OGL LOG][Proc: 0]update_host_matrix_data : 760340 mu s
[OGL LOG][Proc: 0]convert_coo_to_csr : 31642 mu s
[OGL LOG][Proc: 0]gather_initGuess : 478282 mu s
[OGL LOG][Proc: 0]gather_RHS : 428977 mu s
[OGL LOG][Proc: 0]gather_global_matrix : 0 mu s
[OGL LOG][Proc: 0]init_precond : 73 mu s
[OGL LOG][Proc: 0]generate_solver : 18 mu s
[OGL LOG][Proc: 0]solve : 100609633 mu s
[OGL LOG][Proc: 0]retrieve_result_from_device : 350170 mu s
nonecudaGKOCG:  Solving for p, Initial residual = 1, Final residual = 9.99539e-07, No Iterations 4456
linear solve p 2120023085
time step continuity errors : sum local = 3.76185e-11, global = 4.66323e-21, cumulative = 4.66323e-21
[OGL LOG][Proc: 0]global_index_init : 9669 mu s
[OGL LOG][Proc: 0]global_index_init : 4 mu s
[OGL LOG][Proc: 0]global_index_init : 3 mu s
[OGL LOG][Proc: 0]global_index_init : 2 mu s
[OGL LOG][Proc: 0]update_host_matrix_data : 656259 mu s
[OGL LOG][Proc: 0]gather_initGuess : 11 mu s
[OGL LOG][Proc: 0]gather_RHS : 438978 mu s
[OGL LOG][Proc: 0]gather_global_matrix : 0 mu s
read from registry
[OGL LOG][Proc: 0]init_precond : 22 mu s
[OGL LOG][Proc: 0]generate_solver : 2 mu s
[OGL LOG][Proc: 0]solve : 97171388 mu s
[OGL LOG][Proc: 0]retrieve_result_from_device : 352716 mu s
nonecudaGKOCG:  Solving for p, Initial residual = 0.840056, Final residual = 8.68032e-07, No Iterations 4451
linear solve p 98851974
time step continuity errors : sum local = 3.87327e-11, global = -4.09638e-22, cumulative = 4.25359e-21
ExecutionTime = 2295.99 s  ClockTime = 2300 s

Time = 0.0004

Courant Number mean: 0.0211731 max: 0.914191
DILUPBiCGStab:  Solving for Ux, Initial residual = 0.0923777, Final residual = 0.0251936, No Iterations 5
DILUPBiCGStab:  Solving for Uy, Initial residual = 0.596111, Final residual = 0.161434, No Iterations 5
DILUPBiCGStab:  Solving for Uz, Initial residual = 0.96798, Final residual = 0.301976, No Iterations 5
linear solve U 30059214
[OGL LOG][Proc: 0]global_index_init : 10634 mu s
[OGL LOG][Proc: 0]global_index_init : 4 mu s
[OGL LOG][Proc: 0]global_index_init : 2 mu s
[OGL LOG][Proc: 0]global_index_init : 1 mu s
[OGL LOG][Proc: 0]update_host_matrix_data : 656589 mu s
[OGL LOG][Proc: 0]gather_initGuess : 5 mu s
[OGL LOG][Proc: 0]gather_RHS : 429700 mu s
[OGL LOG][Proc: 0]gather_global_matrix : 0 mu s
read from registry
[OGL LOG][Proc: 0]init_precond : 9 mu s
[OGL LOG][Proc: 0]generate_solver : 1 mu s
[OGL LOG][Proc: 0]solve : 97169448 mu s
[OGL LOG][Proc: 0]retrieve_result_from_device : 353407 mu s
nonecudaGKOCG:  Solving for p, Initial residual = 0.947125, Final residual = 3.52458e-07, No Iterations 4451
linear solve p 98843746
time step continuity errors : sum local = 5.63533e-11, global = 2.55877e-23, cumulative = 4.27918e-21
[OGL LOG][Proc: 0]global_index_init : 9113 mu s
[OGL LOG][Proc: 0]global_index_init : 4 mu s
[OGL LOG][Proc: 0]global_index_init : 1 mu s
[OGL LOG][Proc: 0]global_index_init : 1 mu s
[OGL LOG][Proc: 0]update_host_matrix_data : 654334 mu s
[OGL LOG][Proc: 0]gather_initGuess : 4 mu s
[OGL LOG][Proc: 0]gather_RHS : 433198 mu s
[OGL LOG][Proc: 0]gather_global_matrix : 0 mu s
read from registry
[OGL LOG][Proc: 0]init_precond : 8 mu s
[OGL LOG][Proc: 0]generate_solver : 2 mu s
[OGL LOG][Proc: 0]solve : 97155899 mu s
[OGL LOG][Proc: 0]retrieve_result_from_device : 321704 mu s
nonecudaGKOCG:  Solving for p, Initial residual = 0.903247, Final residual = 3.32338e-07, No Iterations 4451
linear solve p 98798359
time step continuity errors : sum local = 5.41956e-11, global = -2.81663e-22, cumulative = 3.99751e-21
ExecutionTime = 2540.15 s  ClockTime = 2545 s

Time = 0.0006

Courant Number mean: 0.0347242 max: 1.14003
DILUPBiCGStab:  Solving for Ux, Initial residual = 0.0604533, Final residual = 0.0139842, No Iterations 5
DILUPBiCGStab:  Solving for Uy, Initial residual = 0.465811, Final residual = 0.0774639, No Iterations 5
DILUPBiCGStab:  Solving for Uz, Initial residual = 0.867336, Final residual = 0.201133, No Iterations 5
linear solve U 30052859
[OGL LOG][Proc: 0]global_index_init : 10613 mu s
[OGL LOG][Proc: 0]global_index_init : 2 mu s
[OGL LOG][Proc: 0]global_index_init : 2 mu s
[OGL LOG][Proc: 0]global_index_init : 1 mu s
[OGL LOG][Proc: 0]update_host_matrix_data : 656033 mu s
[OGL LOG][Proc: 0]gather_initGuess : 5 mu s
[OGL LOG][Proc: 0]gather_RHS : 443579 mu s
[OGL LOG][Proc: 0]gather_global_matrix : 0 mu s
read from registry
[OGL LOG][Proc: 0]init_precond : 9 mu s
[OGL LOG][Proc: 0]generate_solver : 1 mu s
[OGL LOG][Proc: 0]solve : 97158040 mu s
[OGL LOG][Proc: 0]retrieve_result_from_device : 352693 mu s
nonecudaGKOCG:  Solving for p, Initial residual = 0.975349, Final residual = 3.28241e-07, No Iterations 4451
linear solve p 98843920
time step continuity errors : sum local = 9.56484e-11, global = -9.67576e-22, cumulative = 3.02994e-21
[OGL LOG][Proc: 0]global_index_init : 9414 mu s
[OGL LOG][Proc: 0]global_index_init : 2 mu s
[OGL LOG][Proc: 0]global_index_init : 4 mu s
[OGL LOG][Proc: 0]global_index_init : 1 mu s
[OGL LOG][Proc: 0]update_host_matrix_data : 652555 mu s
[OGL LOG][Proc: 0]gather_initGuess : 5 mu s
[OGL LOG][Proc: 0]gather_RHS : 442294 mu s
[OGL LOG][Proc: 0]gather_global_matrix : 0 mu s
read from registry
[OGL LOG][Proc: 0]init_precond : 10 mu s
[OGL LOG][Proc: 0]generate_solver : 1 mu s
[OGL LOG][Proc: 0]solve : 97167080 mu s
[OGL LOG][Proc: 0]retrieve_result_from_device : 321411 mu s
nonecudaGKOCG:  Solving for p, Initial residual = 0.93795, Final residual = 3.15708e-07, No Iterations 4451
linear solve p 98818100
time step continuity errors : sum local = 9.2546e-11, global = -7.01742e-22, cumulative = 2.3282e-21
ExecutionTime = 2784.27 s  ClockTime = 2789 s

End

Finalising parallel run
================================================================================
