hash: 3088e348f27aeafa88467772f2448eba
/*---------------------------------------------------------------------------*\
| =========                 |                                                 |
| \\      /  F ield         | OpenFOAM: The Open Source CFD Toolbox           |
|  \\    /   O peration     | Version:  v2106                                 |
|   \\  /    A nd           | Website:  www.openfoam.com                      |
|    \\/     M anipulation  |                                                 |
\*---------------------------------------------------------------------------*/
Build  : f815a12bba-20210902 OPENFOAM=2106
Arch   : "LSB;label=32;scalar=64"
Exec   : icoFoam -parallel
Date   : Jan 30 2022
Time   : 17:06:44
Host   : nla-gpu2.ianm.kit.edu
PID    : 1685753
I/O    : uncollated
Case   : /home/greole/data/code/ogl_labbook/lidDrivenCavity3D/resolution/Variation_mesh/300/Variation_matrix_solver/BiCGStab_NoPrecond_HIP/Variation_mpiRank/8/base
nProcs : 8
Hosts  :
(
    (nla-gpu2.ianm.kit.edu 8)
)
Pstream initialized with:
    floatTransfer      : 0
    nProcsSimpleSum    : 0
    commsType          : nonBlocking
    polling iterations : 0
trapFpe: Floating point exception trapping enabled (FOAM_SIGFPE).
fileModificationChecking : Monitoring run-time modified files using timeStampMaster (fileModificationSkew 5, maxFileModificationPolls 20)
allowSystemOperations : Allowing user-supplied system call operations

// * * * * * * * * * * * * * * * * * * * * * * * * * * * * * * * * * * * * * //
Create time

Create mesh for time = 0


PISO: Operating solver in PISO mode

Reading transportProperties

Reading field p

Reading field U

Reading/calculating face flux field phi


Starting time loop

Time = 0.000333333

Courant Number mean: 0 max: 0
DILUPBiCGStab:  Solving for Ux, Initial residual = 1, Final residual = 0.0285744, No Iterations 5
DILUPBiCGStab:  Solving for Uy:  solution singularity
DILUPBiCGStab:  Solving for Uz:  solution singularity
linear solve U 1519977
[OGL LOG][Proc: 0]global_index_init : 30616 mu s
[OGL LOG][Proc: 0]global_index_init : 5 mu s
[OGL LOG][Proc: 0]global_index_init : 4 mu s
[OGL LOG][Proc: 0]global_index_init : 4 mu s
[OGL LOG][Proc: 0]init_host_sparsity_pattern : 115553019 mu s
[OGL LOG][Proc: 0]update_host_matrix_data : 82934 mu s
[OGL LOG][Proc: 0]convert_coo_to_csr : 11360 mu s
[OGL LOG][Proc: 0]gather_initGuess : 65687 mu s
[OGL LOG][Proc: 0]gather_RHS : 59106 mu s
[OGL LOG][Proc: 0]gather_global_matrix : 0 mu s
[OGL LOG][Proc: 0]init_precond : 80 mu s
[OGL LOG][Proc: 0]generate_solver : 22 mu s
[OGL LOG][Proc: 0]solve : 37135626 mu s
[OGL LOG][Proc: 0]retrieve_result_from_device : 58742 mu s
nonehipGKOBiCGStab:  Solving for p, Initial residual = 1, Final residual = 7.14638e-07, No Iterations 2516
linear solve p 187970599
time step continuity errors : sum local = 7.89395e-11, global = 5.74462e-21, cumulative = 5.74462e-21
[OGL LOG][Proc: 0]global_index_init : 409 mu s
[OGL LOG][Proc: 0]global_index_init : 5 mu s
[OGL LOG][Proc: 0]global_index_init : 6 mu s
[OGL LOG][Proc: 0]global_index_init : 3 mu s
[OGL LOG][Proc: 0]update_host_matrix_data : 66644 mu s
[OGL LOG][Proc: 0]gather_initGuess : 17 mu s
[OGL LOG][Proc: 0]gather_RHS : 59545 mu s
[OGL LOG][Proc: 0]gather_global_matrix : 0 mu s
read from registry
[OGL LOG][Proc: 0]init_precond : 35 mu s
[OGL LOG][Proc: 0]generate_solver : 2 mu s
[OGL LOG][Proc: 0]solve : 35613998 mu s
[OGL LOG][Proc: 0]retrieve_result_from_device : 62591 mu s
nonehipGKOBiCGStab:  Solving for p, Initial residual = 0.827887, Final residual = 7.6222e-07, No Iterations 2550
linear solve p 35836886
time step continuity errors : sum local = 1.7273e-10, global = 1.20099e-21, cumulative = 6.94561e-21
ExecutionTime = 249.65 s  ClockTime = 244 s

Time = 0.000666667

Courant Number mean: 0.0305465 max: 0.890858
DILUPBiCGStab:  Solving for Ux, Initial residual = 0.106033, Final residual = 0.0187016, No Iterations 5
DILUPBiCGStab:  Solving for Uy, Initial residual = 0.546322, Final residual = 0.0883787, No Iterations 5
DILUPBiCGStab:  Solving for Uz, Initial residual = 0.963957, Final residual = 0.177006, No Iterations 5
linear solve U 2917180
[OGL LOG][Proc: 0]global_index_init : 337 mu s
[OGL LOG][Proc: 0]global_index_init : 3 mu s
[OGL LOG][Proc: 0]global_index_init : 5 mu s
[OGL LOG][Proc: 0]global_index_init : 4 mu s
[OGL LOG][Proc: 0]update_host_matrix_data : 69577 mu s
[OGL LOG][Proc: 0]gather_initGuess : 2 mu s
[OGL LOG][Proc: 0]gather_RHS : 59136 mu s
[OGL LOG][Proc: 0]gather_global_matrix : 1 mu s
read from registry
[OGL LOG][Proc: 0]init_precond : 13 mu s
[OGL LOG][Proc: 0]generate_solver : 2 mu s
[OGL LOG][Proc: 0]solve : 40517385 mu s
[OGL LOG][Proc: 0]retrieve_result_from_device : 54703 mu s
nonehipGKOBiCGStab:  Solving for p, Initial residual = 0.926022, Final residual = 4.74417e-07, No Iterations 2907
linear solve p 40730937
time step continuity errors : sum local = 3.00143e-10, global = -3.80848e-23, cumulative = 6.90753e-21
[OGL LOG][Proc: 0]global_index_init : 348 mu s
[OGL LOG][Proc: 0]global_index_init : 3 mu s
[OGL LOG][Proc: 0]global_index_init : 4 mu s
[OGL LOG][Proc: 0]global_index_init : 4 mu s
[OGL LOG][Proc: 0]update_host_matrix_data : 67446 mu s
[OGL LOG][Proc: 0]gather_initGuess : 4 mu s
[OGL LOG][Proc: 0]gather_RHS : 59517 mu s
[OGL LOG][Proc: 0]gather_global_matrix : 1 mu s
read from registry
[OGL LOG][Proc: 0]init_precond : 16 mu s
[OGL LOG][Proc: 0]generate_solver : 2 mu s
[OGL LOG][Proc: 0]solve : 47235340 mu s
[OGL LOG][Proc: 0]retrieve_result_from_device : 60873 mu s
nonehipGKOBiCGStab:  Solving for p, Initial residual = 0.879198, Final residual = 9.76061e-07, No Iterations 3364
linear solve p 47453674
time step continuity errors : sum local = 5.39403e-10, global = -1.4983e-21, cumulative = 5.40923e-21
ExecutionTime = 349.38 s  ClockTime = 337 s

Time = 0.001

Courant Number mean: 0.0488089 max: 1.07263
DILUPBiCGStab:  Solving for Ux, Initial residual = 0.0665513, Final residual = 0.00905526, No Iterations 5
DILUPBiCGStab:  Solving for Uy, Initial residual = 0.417098, Final residual = 0.0410167, No Iterations 5
DILUPBiCGStab:  Solving for Uz, Initial residual = 0.846654, Final residual = 0.121427, No Iterations 5
linear solve U 2942992
[OGL LOG][Proc: 0]global_index_init : 186 mu s
[OGL LOG][Proc: 0]global_index_init : 3 mu s
[OGL LOG][Proc: 0]global_index_init : 6 mu s
[OGL LOG][Proc: 0]global_index_init : 3 mu s
[OGL LOG][Proc: 0]update_host_matrix_data : 69777 mu s
[OGL LOG][Proc: 0]gather_initGuess : 2 mu s
[OGL LOG][Proc: 0]gather_RHS : 59394 mu s
[OGL LOG][Proc: 0]gather_global_matrix : 0 mu s
read from registry
[OGL LOG][Proc: 0]init_precond : 17 mu s
[OGL LOG][Proc: 0]generate_solver : 2 mu s
[OGL LOG][Proc: 0]solve : 42546440 mu s
[OGL LOG][Proc: 0]retrieve_result_from_device : 58880 mu s
nonehipGKOBiCGStab:  Solving for p, Initial residual = 0.960857, Final residual = 1.93614e-07, No Iterations 3015
linear solve p 42765420
time step continuity errors : sum local = 1.88507e-10, global = -1.85448e-21, cumulative = 3.55475e-21
[OGL LOG][Proc: 0]global_index_init : 359 mu s
[OGL LOG][Proc: 0]global_index_init : 4 mu s
[OGL LOG][Proc: 0]global_index_init : 6 mu s
[OGL LOG][Proc: 0]global_index_init : 3 mu s
[OGL LOG][Proc: 0]update_host_matrix_data : 67836 mu s
[OGL LOG][Proc: 0]gather_initGuess : 4 mu s
[OGL LOG][Proc: 0]gather_RHS : 59027 mu s
[OGL LOG][Proc: 0]gather_global_matrix : 0 mu s
read from registry
[OGL LOG][Proc: 0]init_precond : 13 mu s
[OGL LOG][Proc: 0]generate_solver : 2 mu s
[OGL LOG][Proc: 0]solve : 37236671 mu s
[OGL LOG][Proc: 0]retrieve_result_from_device : 61368 mu s
nonehipGKOBiCGStab:  Solving for p, Initial residual = 0.92576, Final residual = 7.70244e-07, No Iterations 2580
linear solve p 37452479
time step continuity errors : sum local = 7.49716e-10, global = -5.47662e-22, cumulative = 3.00708e-21
ExecutionTime = 440.39 s  ClockTime = 422 s

End

Finalising parallel run
================================================================================
hash: 2fe23dba92d4be0e8c7b42b579be3350
/*---------------------------------------------------------------------------*\
| =========                 |                                                 |
| \\      /  F ield         | OpenFOAM: The Open Source CFD Toolbox           |
|  \\    /   O peration     | Version:  v2106                                 |
|   \\  /    A nd           | Website:  www.openfoam.com                      |
|    \\/     M anipulation  |                                                 |
\*---------------------------------------------------------------------------*/
Build  : f815a12bba-20210902 OPENFOAM=2106
Arch   : "LSB;label=32;scalar=64"
Exec   : icoFoam -parallel
Date   : Jan 30 2022
Time   : 17:13:47
Host   : nla-gpu2.ianm.kit.edu
PID    : 1689691
I/O    : uncollated
Case   : /home/greole/data/code/ogl_labbook/lidDrivenCavity3D/resolution/Variation_mesh/300/Variation_matrix_solver/CG_NoPrecond_HIP/Variation_mpiRank/8/base
nProcs : 8
Hosts  :
(
    (nla-gpu2.ianm.kit.edu 8)
)
Pstream initialized with:
    floatTransfer      : 0
    nProcsSimpleSum    : 0
    commsType          : nonBlocking
    polling iterations : 0
trapFpe: Floating point exception trapping enabled (FOAM_SIGFPE).
fileModificationChecking : Monitoring run-time modified files using timeStampMaster (fileModificationSkew 5, maxFileModificationPolls 20)
allowSystemOperations : Allowing user-supplied system call operations

// * * * * * * * * * * * * * * * * * * * * * * * * * * * * * * * * * * * * * //
Create time

Create mesh for time = 0


PISO: Operating solver in PISO mode

Reading transportProperties

Reading field p

Reading field U

Reading/calculating face flux field phi


Starting time loop

Time = 0.000333333

Courant Number mean: 0 max: 0
DILUPBiCGStab:  Solving for Ux, Initial residual = 1, Final residual = 0.0285744, No Iterations 5
DILUPBiCGStab:  Solving for Uy:  solution singularity
DILUPBiCGStab:  Solving for Uz:  solution singularity
linear solve U 1526198
[OGL LOG][Proc: 0]global_index_init : 38070 mu s
[OGL LOG][Proc: 0]global_index_init : 5 mu s
[OGL LOG][Proc: 0]global_index_init : 4 mu s
[OGL LOG][Proc: 0]global_index_init : 4 mu s
[OGL LOG][Proc: 0]init_host_sparsity_pattern : 115930581 mu s
[OGL LOG][Proc: 0]update_host_matrix_data : 82636 mu s
[OGL LOG][Proc: 0]convert_coo_to_csr : 11029 mu s
[OGL LOG][Proc: 0]gather_initGuess : 65595 mu s
[OGL LOG][Proc: 0]gather_RHS : 58349 mu s
[OGL LOG][Proc: 0]gather_global_matrix : 0 mu s
[OGL LOG][Proc: 0]init_precond : 82 mu s
[OGL LOG][Proc: 0]generate_solver : 17 mu s
[OGL LOG][Proc: 0]solve : 20955553 mu s
[OGL LOG][Proc: 0]retrieve_result_from_device : 62018 mu s
nonehipGKOCG:  Solving for p, Initial residual = 1, Final residual = 9.82417e-07, No Iterations 2637
linear solve p 170804371
time step continuity errors : sum local = 9.27755e-11, global = 7.01296e-21, cumulative = 7.01296e-21
[OGL LOG][Proc: 0]global_index_init : 262 mu s
[OGL LOG][Proc: 0]global_index_init : 3 mu s
[OGL LOG][Proc: 0]global_index_init : 7 mu s
[OGL LOG][Proc: 0]global_index_init : 4 mu s
[OGL LOG][Proc: 0]update_host_matrix_data : 66081 mu s
[OGL LOG][Proc: 0]gather_initGuess : 14 mu s
[OGL LOG][Proc: 0]gather_RHS : 58480 mu s
[OGL LOG][Proc: 0]gather_global_matrix : 0 mu s
read from registry
[OGL LOG][Proc: 0]init_precond : 33 mu s
[OGL LOG][Proc: 0]generate_solver : 2 mu s
[OGL LOG][Proc: 0]solve : 19770815 mu s
[OGL LOG][Proc: 0]retrieve_result_from_device : 57334 mu s
nonehipGKOCG:  Solving for p, Initial residual = 0.827887, Final residual = 9.70033e-07, No Iterations 2626
linear solve p 19982978
time step continuity errors : sum local = 1.09913e-10, global = 1.69126e-22, cumulative = 7.18209e-21
ExecutionTime = 213.64 s  ClockTime = 210 s

Time = 0.000666667

Courant Number mean: 0.0305465 max: 0.890858
DILUPBiCGStab:  Solving for Ux, Initial residual = 0.106029, Final residual = 0.0187003, No Iterations 5
DILUPBiCGStab:  Solving for Uy, Initial residual = 0.546324, Final residual = 0.0883789, No Iterations 5
DILUPBiCGStab:  Solving for Uz, Initial residual = 0.963977, Final residual = 0.176992, No Iterations 5
linear solve U 2917723
[OGL LOG][Proc: 0]global_index_init : 519 mu s
[OGL LOG][Proc: 0]global_index_init : 4 mu s
[OGL LOG][Proc: 0]global_index_init : 5 mu s
[OGL LOG][Proc: 0]global_index_init : 4 mu s
[OGL LOG][Proc: 0]update_host_matrix_data : 68646 mu s
[OGL LOG][Proc: 0]gather_initGuess : 3 mu s
[OGL LOG][Proc: 0]gather_RHS : 58014 mu s
[OGL LOG][Proc: 0]gather_global_matrix : 0 mu s
read from registry
[OGL LOG][Proc: 0]init_precond : 13 mu s
[OGL LOG][Proc: 0]generate_solver : 2 mu s
[OGL LOG][Proc: 0]solve : 19780226 mu s
[OGL LOG][Proc: 0]retrieve_result_from_device : 49551 mu s
nonehipGKOCG:  Solving for p, Initial residual = 0.926023, Final residual = 4.85053e-07, No Iterations 2626
linear solve p 19986023
time step continuity errors : sum local = 1.5363e-10, global = -1.07891e-21, cumulative = 6.10317e-21
[OGL LOG][Proc: 0]global_index_init : 197 mu s
[OGL LOG][Proc: 0]global_index_init : 3 mu s
[OGL LOG][Proc: 0]global_index_init : 5 mu s
[OGL LOG][Proc: 0]global_index_init : 3 mu s
[OGL LOG][Proc: 0]update_host_matrix_data : 66140 mu s
[OGL LOG][Proc: 0]gather_initGuess : 4 mu s
[OGL LOG][Proc: 0]gather_RHS : 58153 mu s
[OGL LOG][Proc: 0]gather_global_matrix : 0 mu s
read from registry
[OGL LOG][Proc: 0]init_precond : 12 mu s
[OGL LOG][Proc: 0]generate_solver : 1 mu s
[OGL LOG][Proc: 0]solve : 19810085 mu s
[OGL LOG][Proc: 0]retrieve_result_from_device : 49145 mu s
nonehipGKOCG:  Solving for p, Initial residual = 0.879205, Final residual = 4.43186e-07, No Iterations 2626
linear solve p 20010933
time step continuity errors : sum local = 1.43158e-10, global = -1.60508e-21, cumulative = 4.49809e-21
ExecutionTime = 261.26 s  ClockTime = 255 s

Time = 0.001

Courant Number mean: 0.0488089 max: 1.07263
DILUPBiCGStab:  Solving for Ux, Initial residual = 0.0665545, Final residual = 0.00905679, No Iterations 5
DILUPBiCGStab:  Solving for Uy, Initial residual = 0.417099, Final residual = 0.0410158, No Iterations 5
DILUPBiCGStab:  Solving for Uz, Initial residual = 0.846608, Final residual = 0.12139, No Iterations 5
linear solve U 2917972
[OGL LOG][Proc: 0]global_index_init : 159 mu s
[OGL LOG][Proc: 0]global_index_init : 3 mu s
[OGL LOG][Proc: 0]global_index_init : 6 mu s
[OGL LOG][Proc: 0]global_index_init : 2 mu s
[OGL LOG][Proc: 0]update_host_matrix_data : 68794 mu s
[OGL LOG][Proc: 0]gather_initGuess : 3 mu s
[OGL LOG][Proc: 0]gather_RHS : 58099 mu s
[OGL LOG][Proc: 0]gather_global_matrix : 1 mu s
read from registry
[OGL LOG][Proc: 0]init_precond : 13 mu s
[OGL LOG][Proc: 0]generate_solver : 2 mu s
[OGL LOG][Proc: 0]solve : 19812054 mu s
[OGL LOG][Proc: 0]retrieve_result_from_device : 49156 mu s
nonehipGKOCG:  Solving for p, Initial residual = 0.960855, Final residual = 5.50002e-07, No Iterations 2626
linear solve p 20015199
time step continuity errors : sum local = 2.67744e-10, global = -1.59838e-21, cumulative = 2.89971e-21
[OGL LOG][Proc: 0]global_index_init : 223 mu s
[OGL LOG][Proc: 0]global_index_init : 3 mu s
[OGL LOG][Proc: 0]global_index_init : 5 mu s
[OGL LOG][Proc: 0]global_index_init : 4 mu s
[OGL LOG][Proc: 0]update_host_matrix_data : 66631 mu s
[OGL LOG][Proc: 0]gather_initGuess : 2 mu s
[OGL LOG][Proc: 0]gather_RHS : 58024 mu s
[OGL LOG][Proc: 0]gather_global_matrix : 1 mu s
read from registry
[OGL LOG][Proc: 0]init_precond : 12 mu s
[OGL LOG][Proc: 0]generate_solver : 2 mu s
[OGL LOG][Proc: 0]solve : 20033778 mu s
[OGL LOG][Proc: 0]retrieve_result_from_device : 49061 mu s
nonehipGKOCG:  Solving for p, Initial residual = 0.925757, Final residual = 5.24177e-07, No Iterations 2626
linear solve p 20236398
time step continuity errors : sum local = 2.55102e-10, global = -1.86773e-21, cumulative = 1.03198e-21
ExecutionTime = 309.16 s  ClockTime = 300 s

End

Finalising parallel run
================================================================================
hash: 415b30743ec3483954da90b5c2c23e56
/*---------------------------------------------------------------------------*\
| =========                 |                                                 |
| \\      /  F ield         | OpenFOAM: The Open Source CFD Toolbox           |
|  \\    /   O peration     | Version:  v2106                                 |
|   \\  /    A nd           | Website:  www.openfoam.com                      |
|    \\/     M anipulation  |                                                 |
\*---------------------------------------------------------------------------*/
Build  : f815a12bba-20210902 OPENFOAM=2106
Arch   : "LSB;label=32;scalar=64"
Exec   : icoFoam -parallel
Date   : Jan 30 2022
Time   : 17:18:48
Host   : nla-gpu2.ianm.kit.edu
PID    : 1692503
I/O    : uncollated
Case   : /home/greole/data/code/ogl_labbook/lidDrivenCavity3D/resolution/Variation_mesh/200/Variation_matrix_solver/BiCGStab_NoPrecond_HIP/Variation_mpiRank/8/base
nProcs : 8
Hosts  :
(
    (nla-gpu2.ianm.kit.edu 8)
)
Pstream initialized with:
    floatTransfer      : 0
    nProcsSimpleSum    : 0
    commsType          : nonBlocking
    polling iterations : 0
trapFpe: Floating point exception trapping enabled (FOAM_SIGFPE).
fileModificationChecking : Monitoring run-time modified files using timeStampMaster (fileModificationSkew 5, maxFileModificationPolls 20)
allowSystemOperations : Allowing user-supplied system call operations

// * * * * * * * * * * * * * * * * * * * * * * * * * * * * * * * * * * * * * //
Create time

Create mesh for time = 0


PISO: Operating solver in PISO mode

Reading transportProperties

Reading field p

Reading field U

Reading/calculating face flux field phi


Starting time loop

Time = 0.0005

Courant Number mean: 0 max: 0
DILUPBiCGStab:  Solving for Ux, Initial residual = 1, Final residual = 0.0216481, No Iterations 5
DILUPBiCGStab:  Solving for Uy:  solution singularity
DILUPBiCGStab:  Solving for Uz:  solution singularity
linear solve U 442344
[OGL LOG][Proc: 0]global_index_init : 43587 mu s
[OGL LOG][Proc: 0]global_index_init : 5 mu s
[OGL LOG][Proc: 0]global_index_init : 5 mu s
[OGL LOG][Proc: 0]global_index_init : 4 mu s
[OGL LOG][Proc: 0]init_host_sparsity_pattern : 18577841 mu s
[OGL LOG][Proc: 0]update_host_matrix_data : 25548 mu s
[OGL LOG][Proc: 0]convert_coo_to_csr : 5822 mu s
[OGL LOG][Proc: 0]gather_initGuess : 23550 mu s
[OGL LOG][Proc: 0]gather_RHS : 19058 mu s
[OGL LOG][Proc: 0]gather_global_matrix : 0 mu s
[OGL LOG][Proc: 0]init_precond : 84 mu s
[OGL LOG][Proc: 0]generate_solver : 21 mu s
[OGL LOG][Proc: 0]solve : 8271068 mu s
[OGL LOG][Proc: 0]retrieve_result_from_device : 19892 mu s
nonehipGKOBiCGStab:  Solving for p, Initial residual = 1, Final residual = 1.38639e-07, No Iterations 1596
linear solve p 27759895
time step continuity errors : sum local = 2.4461e-05, global = -9.7197e-20, cumulative = -9.7197e-20
[OGL LOG][Proc: 0]global_index_init : 224 mu s
[OGL LOG][Proc: 0]global_index_init : 4 mu s
[OGL LOG][Proc: 0]global_index_init : 5 mu s
[OGL LOG][Proc: 0]global_index_init : 4 mu s
[OGL LOG][Proc: 0]update_host_matrix_data : 17992 mu s
[OGL LOG][Proc: 0]gather_initGuess : 10 mu s
[OGL LOG][Proc: 0]gather_RHS : 23242 mu s
[OGL LOG][Proc: 0]gather_global_matrix : 1 mu s
read from registry
[OGL LOG][Proc: 0]init_precond : 31 mu s
[OGL LOG][Proc: 0]generate_solver : 2 mu s
[OGL LOG][Proc: 0]solve : 6046564 mu s
[OGL LOG][Proc: 0]retrieve_result_from_device : 20941 mu s
nonehipGKOBiCGStab:  Solving for p, Initial residual = 0.836689, Final residual = 9.08577e-07, No Iterations 1323
linear solve p 6119590
time step continuity errors : sum local = 4.7554e-10, global = 5.68557e-22, cumulative = -9.66285e-20
ExecutionTime = 43.18 s  ClockTime = 40 s

Time = 0.001

Courant Number mean: 0.0392464 max: 0.865942
DILUPBiCGStab:  Solving for Ux, Initial residual = 0.117859, Final residual = 0.0132331, No Iterations 5
DILUPBiCGStab:  Solving for Uy, Initial residual = 0.506935, Final residual = 0.0497969, No Iterations 5
DILUPBiCGStab:  Solving for Uz, Initial residual = 0.932768, Final residual = 0.12461, No Iterations 5
linear solve U 852993
[OGL LOG][Proc: 0]global_index_init : 121 mu s
[OGL LOG][Proc: 0]global_index_init : 3 mu s
[OGL LOG][Proc: 0]global_index_init : 6 mu s
[OGL LOG][Proc: 0]global_index_init : 2 mu s
[OGL LOG][Proc: 0]update_host_matrix_data : 17104 mu s
[OGL LOG][Proc: 0]gather_initGuess : 2 mu s
[OGL LOG][Proc: 0]gather_RHS : 22839 mu s
[OGL LOG][Proc: 0]gather_global_matrix : 1 mu s
read from registry
[OGL LOG][Proc: 0]init_precond : 12 mu s
[OGL LOG][Proc: 0]generate_solver : 2 mu s
[OGL LOG][Proc: 0]solve : 7861742 mu s
[OGL LOG][Proc: 0]retrieve_result_from_device : 20707 mu s
nonehipGKOBiCGStab:  Solving for p, Initial residual = 0.917817, Final residual = 1.06438e-07, No Iterations 1716
linear solve p 7932959
time step continuity errors : sum local = 1.36707e-10, global = -5.716e-21, cumulative = -1.02344e-19
[OGL LOG][Proc: 0]global_index_init : 124 mu s
[OGL LOG][Proc: 0]global_index_init : 4 mu s
[OGL LOG][Proc: 0]global_index_init : 6 mu s
[OGL LOG][Proc: 0]global_index_init : 3 mu s
[OGL LOG][Proc: 0]update_host_matrix_data : 18134 mu s
[OGL LOG][Proc: 0]gather_initGuess : 2 mu s
[OGL LOG][Proc: 0]gather_RHS : 22835 mu s
[OGL LOG][Proc: 0]gather_global_matrix : 1 mu s
read from registry
[OGL LOG][Proc: 0]init_precond : 12 mu s
[OGL LOG][Proc: 0]generate_solver : 3 mu s
[OGL LOG][Proc: 0]solve : 7153585 mu s
[OGL LOG][Proc: 0]retrieve_result_from_device : 21443 mu s
nonehipGKOBiCGStab:  Solving for p, Initial residual = 0.864049, Final residual = 5.39997e-07, No Iterations 1564
linear solve p 7226759
time step continuity errors : sum local = 6.97764e-10, global = -2.2169e-21, cumulative = -1.04561e-19
ExecutionTime = 62.98 s  ClockTime = 56 s

Time = 0.0015

Courant Number mean: 0.061562 max: 1.02142
DILUPBiCGStab:  Solving for Ux, Initial residual = 0.06881, Final residual = 0.00558169, No Iterations 5
DILUPBiCGStab:  Solving for Uy, Initial residual = 0.360137, Final residual = 0.0217652, No Iterations 5
DILUPBiCGStab:  Solving for Uz, Initial residual = 0.838539, Final residual = 0.0722932, No Iterations 5
linear solve U 858405
[OGL LOG][Proc: 0]global_index_init : 147 mu s
[OGL LOG][Proc: 0]global_index_init : 4 mu s
[OGL LOG][Proc: 0]global_index_init : 6 mu s
[OGL LOG][Proc: 0]global_index_init : 2 mu s
[OGL LOG][Proc: 0]update_host_matrix_data : 17081 mu s
[OGL LOG][Proc: 0]gather_initGuess : 2 mu s
[OGL LOG][Proc: 0]gather_RHS : 22815 mu s
[OGL LOG][Proc: 0]gather_global_matrix : 1 mu s
read from registry
[OGL LOG][Proc: 0]init_precond : 11 mu s
[OGL LOG][Proc: 0]generate_solver : 3 mu s
[OGL LOG][Proc: 0]solve : 7091379 mu s
[OGL LOG][Proc: 0]retrieve_result_from_device : 21180 mu s
nonehipGKOBiCGStab:  Solving for p, Initial residual = 0.945032, Final residual = 9.4587e-07, No Iterations 1550
linear solve p 7162659
time step continuity errors : sum local = 1.46293e-09, global = -1.92185e-21, cumulative = -1.06483e-19
[OGL LOG][Proc: 0]global_index_init : 139 mu s
[OGL LOG][Proc: 0]global_index_init : 3 mu s
[OGL LOG][Proc: 0]global_index_init : 6 mu s
[OGL LOG][Proc: 0]global_index_init : 4 mu s
[OGL LOG][Proc: 0]update_host_matrix_data : 18178 mu s
[OGL LOG][Proc: 0]gather_initGuess : 2 mu s
[OGL LOG][Proc: 0]gather_RHS : 23004 mu s
[OGL LOG][Proc: 0]gather_global_matrix : 1 mu s
read from registry
[OGL LOG][Proc: 0]init_precond : 11 mu s
[OGL LOG][Proc: 0]generate_solver : 2 mu s
[OGL LOG][Proc: 0]solve : 6522814 mu s
[OGL LOG][Proc: 0]retrieve_result_from_device : 20730 mu s
nonehipGKOBiCGStab:  Solving for p, Initial residual = 0.907024, Final residual = 9.03376e-07, No Iterations 1426
linear solve p 6595274
time step continuity errors : sum local = 1.38682e-09, global = 1.69319e-21, cumulative = -1.0479e-19
ExecutionTime = 81.07 s  ClockTime = 71 s

End

Finalising parallel run
================================================================================
hash: 5ce6f32f025fad47f524262c0cb9a890
/*---------------------------------------------------------------------------*\
| =========                 |                                                 |
| \\      /  F ield         | OpenFOAM: The Open Source CFD Toolbox           |
|  \\    /   O peration     | Version:  v2106                                 |
|   \\  /    A nd           | Website:  www.openfoam.com                      |
|    \\/     M anipulation  |                                                 |
\*---------------------------------------------------------------------------*/
Build  : f815a12bba-20210902 OPENFOAM=2106
Arch   : "LSB;label=32;scalar=64"
Exec   : icoFoam -parallel
Date   : Jan 30 2022
Time   : 17:20:00
Host   : nla-gpu2.ianm.kit.edu
PID    : 1693228
I/O    : uncollated
Case   : /home/greole/data/code/ogl_labbook/lidDrivenCavity3D/resolution/Variation_mesh/200/Variation_matrix_solver/CG_NoPrecond_HIP/Variation_mpiRank/8/base
nProcs : 8
Hosts  :
(
    (nla-gpu2.ianm.kit.edu 8)
)
Pstream initialized with:
    floatTransfer      : 0
    nProcsSimpleSum    : 0
    commsType          : nonBlocking
    polling iterations : 0
trapFpe: Floating point exception trapping enabled (FOAM_SIGFPE).
fileModificationChecking : Monitoring run-time modified files using timeStampMaster (fileModificationSkew 5, maxFileModificationPolls 20)
allowSystemOperations : Allowing user-supplied system call operations

// * * * * * * * * * * * * * * * * * * * * * * * * * * * * * * * * * * * * * //
Create time

Create mesh for time = 0


PISO: Operating solver in PISO mode

Reading transportProperties

Reading field p

Reading field U

Reading/calculating face flux field phi


Starting time loop

Time = 0.0005

Courant Number mean: 0 max: 0
DILUPBiCGStab:  Solving for Ux, Initial residual = 1, Final residual = 0.0216481, No Iterations 5
DILUPBiCGStab:  Solving for Uy:  solution singularity
DILUPBiCGStab:  Solving for Uz:  solution singularity
linear solve U 440006
[OGL LOG][Proc: 0]global_index_init : 21922 mu s
[OGL LOG][Proc: 0]global_index_init : 5 mu s
[OGL LOG][Proc: 0]global_index_init : 4 mu s
[OGL LOG][Proc: 0]global_index_init : 5 mu s
[OGL LOG][Proc: 0]init_host_sparsity_pattern : 18550642 mu s
[OGL LOG][Proc: 0]update_host_matrix_data : 25448 mu s
[OGL LOG][Proc: 0]convert_coo_to_csr : 5514 mu s
[OGL LOG][Proc: 0]gather_initGuess : 24040 mu s
[OGL LOG][Proc: 0]gather_RHS : 19171 mu s
[OGL LOG][Proc: 0]gather_global_matrix : 1 mu s
[OGL LOG][Proc: 0]init_precond : 81 mu s
[OGL LOG][Proc: 0]generate_solver : 19 mu s
[OGL LOG][Proc: 0]solve : 4829214 mu s
[OGL LOG][Proc: 0]retrieve_result_from_device : 19760 mu s
nonehipGKOCG:  Solving for p, Initial residual = 1, Final residual = 9.9009e-07, No Iterations 1749
linear solve p 24328102
time step continuity errors : sum local = 1.87367e-10, global = -4.6141e-21, cumulative = -4.6141e-21
[OGL LOG][Proc: 0]global_index_init : 105 mu s
[OGL LOG][Proc: 0]global_index_init : 3 mu s
[OGL LOG][Proc: 0]global_index_init : 5 mu s
[OGL LOG][Proc: 0]global_index_init : 4 mu s
[OGL LOG][Proc: 0]update_host_matrix_data : 18539 mu s
[OGL LOG][Proc: 0]gather_initGuess : 13 mu s
[OGL LOG][Proc: 0]gather_RHS : 23225 mu s
[OGL LOG][Proc: 0]gather_global_matrix : 0 mu s
read from registry
[OGL LOG][Proc: 0]init_precond : 32 mu s
[OGL LOG][Proc: 0]generate_solver : 1 mu s
[OGL LOG][Proc: 0]solve : 4417287 mu s
[OGL LOG][Proc: 0]retrieve_result_from_device : 19229 mu s
nonehipGKOCG:  Solving for p, Initial residual = 0.81518, Final residual = 2.09459e-07, No Iterations 1795
linear solve p 4489260
time step continuity errors : sum local = 4.81474e-11, global = -4.61609e-22, cumulative = -5.07571e-21
ExecutionTime = 36.45 s  ClockTime = 34 s

Time = 0.001

Courant Number mean: 0.0392461 max: 0.865942
DILUPBiCGStab:  Solving for Ux, Initial residual = 0.117616, Final residual = 0.0131468, No Iterations 5
DILUPBiCGStab:  Solving for Uy, Initial residual = 0.506037, Final residual = 0.0494692, No Iterations 5
DILUPBiCGStab:  Solving for Uz, Initial residual = 0.96068, Final residual = 0.101188, No Iterations 5
linear solve U 856374
[OGL LOG][Proc: 0]global_index_init : 113 mu s
[OGL LOG][Proc: 0]global_index_init : 3 mu s
[OGL LOG][Proc: 0]global_index_init : 6 mu s
[OGL LOG][Proc: 0]global_index_init : 4 mu s
[OGL LOG][Proc: 0]update_host_matrix_data : 17189 mu s
[OGL LOG][Proc: 0]gather_initGuess : 2 mu s
[OGL LOG][Proc: 0]gather_RHS : 23306 mu s
[OGL LOG][Proc: 0]gather_global_matrix : 1 mu s
read from registry
[OGL LOG][Proc: 0]init_precond : 15 mu s
[OGL LOG][Proc: 0]generate_solver : 2 mu s
[OGL LOG][Proc: 0]solve : 4365950 mu s
[OGL LOG][Proc: 0]retrieve_result_from_device : 18948 mu s
nonehipGKOCG:  Solving for p, Initial residual = 0.897316, Final residual = 2.23821e-07, No Iterations 1776
linear solve p 4435390
time step continuity errors : sum local = 1.14146e-10, global = 1.59553e-21, cumulative = -3.48018e-21
[OGL LOG][Proc: 0]global_index_init : 138 mu s
[OGL LOG][Proc: 0]global_index_init : 3 mu s
[OGL LOG][Proc: 0]global_index_init : 6 mu s
[OGL LOG][Proc: 0]global_index_init : 3 mu s
[OGL LOG][Proc: 0]update_host_matrix_data : 18651 mu s
[OGL LOG][Proc: 0]gather_initGuess : 2 mu s
[OGL LOG][Proc: 0]gather_RHS : 23376 mu s
[OGL LOG][Proc: 0]gather_global_matrix : 0 mu s
read from registry
[OGL LOG][Proc: 0]init_precond : 13 mu s
[OGL LOG][Proc: 0]generate_solver : 2 mu s
[OGL LOG][Proc: 0]solve : 4374625 mu s
[OGL LOG][Proc: 0]retrieve_result_from_device : 19341 mu s
nonehipGKOCG:  Solving for p, Initial residual = 0.846842, Final residual = 2.08966e-07, No Iterations 1776
linear solve p 4446357
time step continuity errors : sum local = 1.08693e-10, global = 3.51305e-21, cumulative = 3.28759e-23
ExecutionTime = 48.47 s  ClockTime = 44 s

Time = 0.0015

Courant Number mean: 0.0615403 max: 1.02143
DILUPBiCGStab:  Solving for Ux, Initial residual = 0.0685124, Final residual = 0.00554306, No Iterations 5
DILUPBiCGStab:  Solving for Uy, Initial residual = 0.357897, Final residual = 0.0211478, No Iterations 5
DILUPBiCGStab:  Solving for Uz, Initial residual = 0.820139, Final residual = 0.0702935, No Iterations 5
linear solve U 859463
[OGL LOG][Proc: 0]global_index_init : 108 mu s
[OGL LOG][Proc: 0]global_index_init : 3 mu s
[OGL LOG][Proc: 0]global_index_init : 5 mu s
[OGL LOG][Proc: 0]global_index_init : 5 mu s
[OGL LOG][Proc: 0]update_host_matrix_data : 17213 mu s
[OGL LOG][Proc: 0]gather_initGuess : 1 mu s
[OGL LOG][Proc: 0]gather_RHS : 22852 mu s
[OGL LOG][Proc: 0]gather_global_matrix : 1 mu s
read from registry
[OGL LOG][Proc: 0]init_precond : 17 mu s
[OGL LOG][Proc: 0]generate_solver : 1 mu s
[OGL LOG][Proc: 0]solve : 4368632 mu s
[OGL LOG][Proc: 0]retrieve_result_from_device : 19689 mu s
nonehipGKOCG:  Solving for p, Initial residual = 0.937568, Final residual = 1.92201e-07, No Iterations 1776
linear solve p 4438818
time step continuity errors : sum local = 1.27516e-10, global = 4.91249e-22, cumulative = 5.24125e-22
[OGL LOG][Proc: 0]global_index_init : 227 mu s
[OGL LOG][Proc: 0]global_index_init : 3 mu s
[OGL LOG][Proc: 0]global_index_init : 5 mu s
[OGL LOG][Proc: 0]global_index_init : 4 mu s
[OGL LOG][Proc: 0]update_host_matrix_data : 17093 mu s
[OGL LOG][Proc: 0]gather_initGuess : 2 mu s
[OGL LOG][Proc: 0]gather_RHS : 22992 mu s
[OGL LOG][Proc: 0]gather_global_matrix : 0 mu s
read from registry
[OGL LOG][Proc: 0]init_precond : 16 mu s
[OGL LOG][Proc: 0]generate_solver : 1 mu s
[OGL LOG][Proc: 0]solve : 4375987 mu s
[OGL LOG][Proc: 0]retrieve_result_from_device : 19605 mu s
nonehipGKOCG:  Solving for p, Initial residual = 0.905008, Final residual = 1.85503e-07, No Iterations 1776
linear solve p 4446049
time step continuity errors : sum local = 1.22094e-10, global = -6.45518e-22, cumulative = -1.21392e-22
ExecutionTime = 60.49 s  ClockTime = 55 s

End

Finalising parallel run
================================================================================
hash: ed48caf055a2cb973d6c3e662a061a47
/*---------------------------------------------------------------------------*\
| =========                 |                                                 |
| \\      /  F ield         | OpenFOAM: The Open Source CFD Toolbox           |
|  \\    /   O peration     | Version:  v2106                                 |
|   \\  /    A nd           | Website:  www.openfoam.com                      |
|    \\/     M anipulation  |                                                 |
\*---------------------------------------------------------------------------*/
Build  : f815a12bba-20210902 OPENFOAM=2106
Arch   : "LSB;label=32;scalar=64"
Exec   : icoFoam -parallel
Date   : Jan 30 2022
Time   : 17:20:55
Host   : nla-gpu2.ianm.kit.edu
PID    : 1693834
I/O    : uncollated
Case   : /home/greole/data/code/ogl_labbook/lidDrivenCavity3D/resolution/Variation_mesh/100/Variation_matrix_solver/BiCGStab_NoPrecond_HIP/Variation_mpiRank/8/base
nProcs : 8
Hosts  :
(
    (nla-gpu2.ianm.kit.edu 8)
)
Pstream initialized with:
    floatTransfer      : 0
    nProcsSimpleSum    : 0
    commsType          : nonBlocking
    polling iterations : 0
trapFpe: Floating point exception trapping enabled (FOAM_SIGFPE).
fileModificationChecking : Monitoring run-time modified files using timeStampMaster (fileModificationSkew 5, maxFileModificationPolls 20)
allowSystemOperations : Allowing user-supplied system call operations

// * * * * * * * * * * * * * * * * * * * * * * * * * * * * * * * * * * * * * //
Create time

Create mesh for time = 0


PISO: Operating solver in PISO mode

Reading transportProperties

Reading field p

Reading field U

Reading/calculating face flux field phi


Starting time loop

Time = 0.001

Courant Number mean: 0 max: 0
DILUPBiCGStab:  Solving for Ux, Initial residual = 1, Final residual = 0.00976191, No Iterations 5
DILUPBiCGStab:  Solving for Uy:  solution singularity
DILUPBiCGStab:  Solving for Uz:  solution singularity
linear solve U 55792
[OGL LOG][Proc: 0]global_index_init : 34047 mu s
[OGL LOG][Proc: 0]global_index_init : 4 mu s
[OGL LOG][Proc: 0]global_index_init : 4 mu s
[OGL LOG][Proc: 0]global_index_init : 3 mu s
[OGL LOG][Proc: 0]init_host_sparsity_pattern : 565555 mu s
[OGL LOG][Proc: 0]update_host_matrix_data : 3040 mu s
[OGL LOG][Proc: 0]convert_coo_to_csr : 3903 mu s
[OGL LOG][Proc: 0]gather_initGuess : 3709 mu s
[OGL LOG][Proc: 0]gather_RHS : 2820 mu s
[OGL LOG][Proc: 0]gather_global_matrix : 0 mu s
[OGL LOG][Proc: 0]init_precond : 28 mu s
[OGL LOG][Proc: 0]generate_solver : 24 mu s
[OGL LOG][Proc: 0]solve : 1486251 mu s
[OGL LOG][Proc: 0]retrieve_result_from_device : 3900 mu s
nonehipGKOBiCGStab:  Solving for p, Initial residual = 1, Final residual = 8.75349e-07, No Iterations 851
linear solve p 2741370
time step continuity errors : sum local = 0.000208964, global = 2.27005e-19, cumulative = 2.27005e-19
[OGL LOG][Proc: 0]global_index_init : 39 mu s
[OGL LOG][Proc: 0]global_index_init : 3 mu s
[OGL LOG][Proc: 0]global_index_init : 4 mu s
[OGL LOG][Proc: 0]global_index_init : 3 mu s
[OGL LOG][Proc: 0]update_host_matrix_data : 2639 mu s
[OGL LOG][Proc: 0]gather_initGuess : 8 mu s
[OGL LOG][Proc: 0]gather_RHS : 4595 mu s
[OGL LOG][Proc: 0]gather_global_matrix : 0 mu s
read from registry
[OGL LOG][Proc: 0]init_precond : 21 mu s
[OGL LOG][Proc: 0]generate_solver : 2 mu s
[OGL LOG][Proc: 0]solve : 1020497 mu s
[OGL LOG][Proc: 0]retrieve_result_from_device : 3367 mu s
nonehipGKOBiCGStab:  Solving for p, Initial residual = 0.831837, Final residual = 4.29511e-07, No Iterations 799
linear solve p 1033518
time step continuity errors : sum local = 8.4728e-10, global = -4.46404e-21, cumulative = 2.22541e-19
ExecutionTime = 6.49 s  ClockTime = 5 s

Time = 0.002

Courant Number mean: 0.0555242 max: 0.807219
DILUPBiCGStab:  Solving for Ux, Initial residual = 0.137791, Final residual = 0.0046755, No Iterations 5
DILUPBiCGStab:  Solving for Uy, Initial residual = 0.437052, Final residual = 0.013362, No Iterations 5
DILUPBiCGStab:  Solving for Uz, Initial residual = 0.916319, Final residual = 0.033267, No Iterations 5
linear solve U 104397
[OGL LOG][Proc: 0]global_index_init : 17 mu s
[OGL LOG][Proc: 0]global_index_init : 2 mu s
[OGL LOG][Proc: 0]global_index_init : 5 mu s
[OGL LOG][Proc: 0]global_index_init : 3 mu s
[OGL LOG][Proc: 0]update_host_matrix_data : 2694 mu s
[OGL LOG][Proc: 0]gather_initGuess : 1 mu s
[OGL LOG][Proc: 0]gather_RHS : 3813 mu s
[OGL LOG][Proc: 0]gather_global_matrix : 0 mu s
read from registry
[OGL LOG][Proc: 0]init_precond : 8 mu s
[OGL LOG][Proc: 0]generate_solver : 2 mu s
[OGL LOG][Proc: 0]solve : 988356 mu s
[OGL LOG][Proc: 0]retrieve_result_from_device : 2334 mu s
nonehipGKOBiCGStab:  Solving for p, Initial residual = 0.86809, Final residual = 5.62946e-07, No Iterations 775
linear solve p 999184
time step continuity errors : sum local = 1.79972e-09, global = -1.27195e-20, cumulative = 2.09821e-19
[OGL LOG][Proc: 0]global_index_init : 23 mu s
[OGL LOG][Proc: 0]global_index_init : 3 mu s
[OGL LOG][Proc: 0]global_index_init : 5 mu s
[OGL LOG][Proc: 0]global_index_init : 4 mu s
[OGL LOG][Proc: 0]update_host_matrix_data : 1824 mu s
[OGL LOG][Proc: 0]gather_initGuess : 2 mu s
[OGL LOG][Proc: 0]gather_RHS : 3389 mu s
[OGL LOG][Proc: 0]gather_global_matrix : 0 mu s
read from registry
[OGL LOG][Proc: 0]init_precond : 9 mu s
[OGL LOG][Proc: 0]generate_solver : 2 mu s
[OGL LOG][Proc: 0]solve : 1091717 mu s
[OGL LOG][Proc: 0]retrieve_result_from_device : 3140 mu s
nonehipGKOBiCGStab:  Solving for p, Initial residual = 0.798024, Final residual = 3.84572e-07, No Iterations 853
linear solve p 1102134
time step continuity errors : sum local = 5.10389e-05, global = 6.18334e-20, cumulative = 2.71655e-19
ExecutionTime = 10.28 s  ClockTime = 7 s

Time = 0.003

Courant Number mean: 0.0847391 max: 0.945329
DILUPBiCGStab:  Solving for Ux, Initial residual = 0.0647355, Final residual = 0.00173749, No Iterations 5
DILUPBiCGStab:  Solving for Uy, Initial residual = 0.233891, Final residual = 0.00418829, No Iterations 5
DILUPBiCGStab:  Solving for Uz, Initial residual = 0.743448, Final residual = 0.019034, No Iterations 5
linear solve U 105285
[OGL LOG][Proc: 0]global_index_init : 23 mu s
[OGL LOG][Proc: 0]global_index_init : 3 mu s
[OGL LOG][Proc: 0]global_index_init : 5 mu s
[OGL LOG][Proc: 0]global_index_init : 5 mu s
[OGL LOG][Proc: 0]update_host_matrix_data : 2676 mu s
[OGL LOG][Proc: 0]gather_initGuess : 1 mu s
[OGL LOG][Proc: 0]gather_RHS : 3383 mu s
[OGL LOG][Proc: 0]gather_global_matrix : 0 mu s
read from registry
[OGL LOG][Proc: 0]init_precond : 9 mu s
[OGL LOG][Proc: 0]generate_solver : 2 mu s
[OGL LOG][Proc: 0]solve : 994311 mu s
[OGL LOG][Proc: 0]retrieve_result_from_device : 1654 mu s
nonehipGKOBiCGStab:  Solving for p, Initial residual = 0.845405, Final residual = 3.85127e-07, No Iterations 782
linear solve p 1004164
time step continuity errors : sum local = 2.48726e-09, global = 3.6292e-21, cumulative = 2.75284e-19
[OGL LOG][Proc: 0]global_index_init : 9 mu s
[OGL LOG][Proc: 0]global_index_init : 3 mu s
[OGL LOG][Proc: 0]global_index_init : 5 mu s
[OGL LOG][Proc: 0]global_index_init : 4 mu s
[OGL LOG][Proc: 0]update_host_matrix_data : 1779 mu s
[OGL LOG][Proc: 0]gather_initGuess : 1 mu s
[OGL LOG][Proc: 0]gather_RHS : 3603 mu s
[OGL LOG][Proc: 0]gather_global_matrix : 0 mu s
read from registry
[OGL LOG][Proc: 0]init_precond : 8 mu s
[OGL LOG][Proc: 0]generate_solver : 2 mu s
[OGL LOG][Proc: 0]solve : 1006028 mu s
[OGL LOG][Proc: 0]retrieve_result_from_device : 2333 mu s
nonehipGKOBiCGStab:  Solving for p, Initial residual = 0.820008, Final residual = 4.82052e-07, No Iterations 791
linear solve p 1015580
time step continuity errors : sum local = 1.66702e-05, global = -3.13402e-20, cumulative = 2.43944e-19
ExecutionTime = 13.93 s  ClockTime = 9 s

End

Finalising parallel run
================================================================================
hash: d9f96003b0e83797ad1394ef30c78eb9
/*---------------------------------------------------------------------------*\
| =========                 |                                                 |
| \\      /  F ield         | OpenFOAM: The Open Source CFD Toolbox           |
|  \\    /   O peration     | Version:  v2106                                 |
|   \\  /    A nd           | Website:  www.openfoam.com                      |
|    \\/     M anipulation  |                                                 |
\*---------------------------------------------------------------------------*/
Build  : f815a12bba-20210902 OPENFOAM=2106
Arch   : "LSB;label=32;scalar=64"
Exec   : icoFoam -parallel
Date   : Jan 30 2022
Time   : 17:21:05
Host   : nla-gpu2.ianm.kit.edu
PID    : 1693916
I/O    : uncollated
Case   : /home/greole/data/code/ogl_labbook/lidDrivenCavity3D/resolution/Variation_mesh/100/Variation_matrix_solver/CG_NoPrecond_HIP/Variation_mpiRank/8/base
nProcs : 8
Hosts  :
(
    (nla-gpu2.ianm.kit.edu 8)
)
Pstream initialized with:
    floatTransfer      : 0
    nProcsSimpleSum    : 0
    commsType          : nonBlocking
    polling iterations : 0
trapFpe: Floating point exception trapping enabled (FOAM_SIGFPE).
fileModificationChecking : Monitoring run-time modified files using timeStampMaster (fileModificationSkew 5, maxFileModificationPolls 20)
allowSystemOperations : Allowing user-supplied system call operations

// * * * * * * * * * * * * * * * * * * * * * * * * * * * * * * * * * * * * * //
Create time

Create mesh for time = 0


PISO: Operating solver in PISO mode

Reading transportProperties

Reading field p

Reading field U

Reading/calculating face flux field phi


Starting time loop

Time = 0.001

Courant Number mean: 0 max: 0
DILUPBiCGStab:  Solving for Ux, Initial residual = 1, Final residual = 0.00976191, No Iterations 5
DILUPBiCGStab:  Solving for Uy:  solution singularity
DILUPBiCGStab:  Solving for Uz:  solution singularity
linear solve U 56136
[OGL LOG][Proc: 0]global_index_init : 52742 mu s
[OGL LOG][Proc: 0]global_index_init : 5 mu s
[OGL LOG][Proc: 0]global_index_init : 5 mu s
[OGL LOG][Proc: 0]global_index_init : 4 mu s
[OGL LOG][Proc: 0]init_host_sparsity_pattern : 562279 mu s
[OGL LOG][Proc: 0]update_host_matrix_data : 3147 mu s
[OGL LOG][Proc: 0]convert_coo_to_csr : 3938 mu s
[OGL LOG][Proc: 0]gather_initGuess : 3771 mu s
[OGL LOG][Proc: 0]gather_RHS : 2947 mu s
[OGL LOG][Proc: 0]gather_global_matrix : 0 mu s
[OGL LOG][Proc: 0]init_precond : 33 mu s
[OGL LOG][Proc: 0]generate_solver : 18 mu s
[OGL LOG][Proc: 0]solve : 830303 mu s
[OGL LOG][Proc: 0]retrieve_result_from_device : 4051 mu s
nonehipGKOCG:  Solving for p, Initial residual = 1, Final residual = 9.67329e-07, No Iterations 901
linear solve p 2085350
time step continuity errors : sum local = 5.59749e-10, global = 8.36691e-21, cumulative = 8.36691e-21
[OGL LOG][Proc: 0]global_index_init : 43 mu s
[OGL LOG][Proc: 0]global_index_init : 3 mu s
[OGL LOG][Proc: 0]global_index_init : 4 mu s
[OGL LOG][Proc: 0]global_index_init : 3 mu s
[OGL LOG][Proc: 0]update_host_matrix_data : 2749 mu s
[OGL LOG][Proc: 0]gather_initGuess : 7 mu s
[OGL LOG][Proc: 0]gather_RHS : 4609 mu s
[OGL LOG][Proc: 0]gather_global_matrix : 0 mu s
read from registry
[OGL LOG][Proc: 0]init_precond : 21 mu s
[OGL LOG][Proc: 0]generate_solver : 1 mu s
[OGL LOG][Proc: 0]solve : 597286 mu s
[OGL LOG][Proc: 0]retrieve_result_from_device : 2267 mu s
nonehipGKOCG:  Solving for p, Initial residual = 0.777378, Final residual = 6.7016e-07, No Iterations 901
linear solve p 609073
time step continuity errors : sum local = 4.88721e-10, global = 2.19385e-21, cumulative = 1.05608e-20
ExecutionTime = 4.63 s  ClockTime = 4 s

Time = 0.002

Courant Number mean: 0.0555224 max: 0.807219
DILUPBiCGStab:  Solving for Ux, Initial residual = 0.137481, Final residual = 0.00480444, No Iterations 5
DILUPBiCGStab:  Solving for Uy, Initial residual = 0.431367, Final residual = 0.0127824, No Iterations 5
DILUPBiCGStab:  Solving for Uz, Initial residual = 0.97357, Final residual = 0.0274119, No Iterations 5
linear solve U 102522
[OGL LOG][Proc: 0]global_index_init : 23 mu s
[OGL LOG][Proc: 0]global_index_init : 3 mu s
[OGL LOG][Proc: 0]global_index_init : 4 mu s
[OGL LOG][Proc: 0]global_index_init : 4 mu s
[OGL LOG][Proc: 0]update_host_matrix_data : 1680 mu s
[OGL LOG][Proc: 0]gather_initGuess : 2 mu s
[OGL LOG][Proc: 0]gather_RHS : 3565 mu s
[OGL LOG][Proc: 0]gather_global_matrix : 0 mu s
read from registry
[OGL LOG][Proc: 0]init_precond : 8 mu s
[OGL LOG][Proc: 0]generate_solver : 1 mu s
[OGL LOG][Proc: 0]solve : 606078 mu s
[OGL LOG][Proc: 0]retrieve_result_from_device : 2946 mu s
nonehipGKOCG:  Solving for p, Initial residual = 0.808994, Final residual = 4.77156e-07, No Iterations 901
linear solve p 616391
time step continuity errors : sum local = 5.11532e-10, global = -7.48109e-21, cumulative = 3.07966e-21
[OGL LOG][Proc: 0]global_index_init : 35 mu s
[OGL LOG][Proc: 0]global_index_init : 3 mu s
[OGL LOG][Proc: 0]global_index_init : 5 mu s
[OGL LOG][Proc: 0]global_index_init : 3 mu s
[OGL LOG][Proc: 0]update_host_matrix_data : 2712 mu s
[OGL LOG][Proc: 0]gather_initGuess : 3 mu s
[OGL LOG][Proc: 0]gather_RHS : 3369 mu s
[OGL LOG][Proc: 0]gather_global_matrix : 0 mu s
read from registry
[OGL LOG][Proc: 0]init_precond : 8 mu s
[OGL LOG][Proc: 0]generate_solver : 1 mu s
[OGL LOG][Proc: 0]solve : 598254 mu s
[OGL LOG][Proc: 0]retrieve_result_from_device : 2193 mu s
nonehipGKOCG:  Solving for p, Initial residual = 0.74964, Final residual = 4.06032e-07, No Iterations 901
linear solve p 608555
time step continuity errors : sum local = 4.4421e-10, global = 6.59161e-21, cumulative = 9.67127e-21
ExecutionTime = 6.93 s  ClockTime = 5 s

Time = 0.003

Courant Number mean: 0.0846038 max: 0.943672
DILUPBiCGStab:  Solving for Ux, Initial residual = 0.0646795, Final residual = 0.00170435, No Iterations 5
DILUPBiCGStab:  Solving for Uy, Initial residual = 0.226339, Final residual = 0.00427099, No Iterations 5
DILUPBiCGStab:  Solving for Uz, Initial residual = 0.765697, Final residual = 0.0189349, No Iterations 5
linear solve U 103746
[OGL LOG][Proc: 0]global_index_init : 35 mu s
[OGL LOG][Proc: 0]global_index_init : 3 mu s
[OGL LOG][Proc: 0]global_index_init : 6 mu s
[OGL LOG][Proc: 0]global_index_init : 4 mu s
[OGL LOG][Proc: 0]update_host_matrix_data : 1706 mu s
[OGL LOG][Proc: 0]gather_initGuess : 2 mu s
[OGL LOG][Proc: 0]gather_RHS : 3833 mu s
[OGL LOG][Proc: 0]gather_global_matrix : 0 mu s
read from registry
[OGL LOG][Proc: 0]init_precond : 8 mu s
[OGL LOG][Proc: 0]generate_solver : 2 mu s
[OGL LOG][Proc: 0]solve : 595488 mu s
[OGL LOG][Proc: 0]retrieve_result_from_device : 2338 mu s
nonehipGKOCG:  Solving for p, Initial residual = 0.837716, Final residual = 4.1872e-07, No Iterations 901
linear solve p 605196
time step continuity errors : sum local = 4.14454e-10, global = 2.2017e-22, cumulative = 9.89144e-21
[OGL LOG][Proc: 0]global_index_init : 36 mu s
[OGL LOG][Proc: 0]global_index_init : 3 mu s
[OGL LOG][Proc: 0]global_index_init : 5 mu s
[OGL LOG][Proc: 0]global_index_init : 4 mu s
[OGL LOG][Proc: 0]update_host_matrix_data : 1715 mu s
[OGL LOG][Proc: 0]gather_initGuess : 2 mu s
[OGL LOG][Proc: 0]gather_RHS : 3408 mu s
[OGL LOG][Proc: 0]gather_global_matrix : 0 mu s
read from registry
[OGL LOG][Proc: 0]init_precond : 8 mu s
[OGL LOG][Proc: 0]generate_solver : 1 mu s
[OGL LOG][Proc: 0]solve : 595626 mu s
[OGL LOG][Proc: 0]retrieve_result_from_device : 1915 mu s
nonehipGKOCG:  Solving for p, Initial residual = 0.805107, Final residual = 3.93572e-07, No Iterations 901
linear solve p 604543
time step continuity errors : sum local = 3.80108e-10, global = -7.49478e-21, cumulative = 2.39667e-21
ExecutionTime = 9.2 s  ClockTime = 6 s

End

Finalising parallel run
================================================================================
hash: 242b4b89b0247a5237f487352b4436f7
/*---------------------------------------------------------------------------*\
| =========                 |                                                 |
| \\      /  F ield         | OpenFOAM: The Open Source CFD Toolbox           |
|  \\    /   O peration     | Version:  v2106                                 |
|   \\  /    A nd           | Website:  www.openfoam.com                      |
|    \\/     M anipulation  |                                                 |
\*---------------------------------------------------------------------------*/
Build  : f815a12bba-20210902 OPENFOAM=2106
Arch   : "LSB;label=32;scalar=64"
Exec   : icoFoam -parallel
Date   : Jan 30 2022
Time   : 17:41:40
Host   : nla-gpu2.ianm.kit.edu
PID    : 1705363
I/O    : uncollated
Case   : /home/greole/data/code/ogl_labbook/lidDrivenCavity3D/resolution/Variation_mesh/500/Variation_matrix_solver/CG_NoPrecond_HIP/Variation_mpiRank/8/base
nProcs : 8
Hosts  :
(
    (nla-gpu2.ianm.kit.edu 8)
)
Pstream initialized with:
    floatTransfer      : 0
    nProcsSimpleSum    : 0
    commsType          : nonBlocking
    polling iterations : 0
trapFpe: Floating point exception trapping enabled (FOAM_SIGFPE).
fileModificationChecking : Monitoring run-time modified files using timeStampMaster (fileModificationSkew 5, maxFileModificationPolls 20)
allowSystemOperations : Allowing user-supplied system call operations

// * * * * * * * * * * * * * * * * * * * * * * * * * * * * * * * * * * * * * //
Create time

Create mesh for time = 0


PISO: Operating solver in PISO mode

Reading transportProperties

Reading field p

Reading field U

Reading/calculating face flux field phi


Starting time loop

Time = 0.0002

Courant Number mean: 0 max: 0
DILUPBiCGStab:  Solving for Ux, Initial residual = 1, Final residual = 0.036513, No Iterations 5
DILUPBiCGStab:  Solving for Uy:  solution singularity
DILUPBiCGStab:  Solving for Uz:  solution singularity
linear solve U 7075007
[OGL LOG][Proc: 0]global_index_init : 25369 mu s
[OGL LOG][Proc: 0]global_index_init : 5 mu s
[OGL LOG][Proc: 0]global_index_init : 4 mu s
[OGL LOG][Proc: 0]global_index_init : 3 mu s
[OGL LOG][Proc: 0]init_host_sparsity_pattern : 1542816662 mu s
[OGL LOG][Proc: 0]update_host_matrix_data : 403136 mu s
[OGL LOG][Proc: 0]convert_coo_to_csr : 33433 mu s
[OGL LOG][Proc: 0]gather_initGuess : 301323 mu s
[OGL LOG][Proc: 0]gather_RHS : 280539 mu s
[OGL LOG][Proc: 0]gather_global_matrix : 1 mu s
[OGL LOG][Proc: 0]init_precond : 82 mu s
[OGL LOG][Proc: 0]generate_solver : 20 mu s
[OGL LOG][Proc: 0]solve : 161012252 mu s
[OGL LOG][Proc: 0]retrieve_result_from_device : 264837 mu s
nonehipGKOCG:  Solving for p, Initial residual = 1, Final residual = 9.99539e-07, No Iterations 4456
linear solve p 2075230473
time step continuity errors : sum local = 3.76185e-11, global = 4.20725e-21, cumulative = 4.20725e-21
[OGL LOG][Proc: 0]global_index_init : 1255 mu s
[OGL LOG][Proc: 0]global_index_init : 5 mu s
[OGL LOG][Proc: 0]global_index_init : 4 mu s
[OGL LOG][Proc: 0]global_index_init : 4 mu s
[OGL LOG][Proc: 0]update_host_matrix_data : 329018 mu s
[OGL LOG][Proc: 0]gather_initGuess : 21 mu s
[OGL LOG][Proc: 0]gather_RHS : 293906 mu s
[OGL LOG][Proc: 0]gather_global_matrix : 1 mu s
read from registry
[OGL LOG][Proc: 0]init_precond : 33 mu s
[OGL LOG][Proc: 0]generate_solver : 2 mu s
[OGL LOG][Proc: 0]solve : 158645832 mu s
[OGL LOG][Proc: 0]retrieve_result_from_device : 264132 mu s
nonehipGKOCG:  Solving for p, Initial residual = 0.840056, Final residual = 8.68032e-07, No Iterations 4451
linear solve p 159691409
time step continuity errors : sum local = 3.87327e-11, global = 1.03853e-22, cumulative = 4.31111e-21
ExecutionTime = 2322.08 s  ClockTime = 2321 s

Time = 0.0004

Courant Number mean: 0.0211731 max: 0.914191
DILUPBiCGStab:  Solving for Ux, Initial residual = 0.0923777, Final residual = 0.0251936, No Iterations 5
DILUPBiCGStab:  Solving for Uy, Initial residual = 0.596111, Final residual = 0.161434, No Iterations 5
DILUPBiCGStab:  Solving for Uz, Initial residual = 0.96798, Final residual = 0.301976, No Iterations 5
linear solve U 13911556
[OGL LOG][Proc: 0]global_index_init : 863 mu s
[OGL LOG][Proc: 0]global_index_init : 4 mu s
[OGL LOG][Proc: 0]global_index_init : 4 mu s
[OGL LOG][Proc: 0]global_index_init : 4 mu s
[OGL LOG][Proc: 0]update_host_matrix_data : 321876 mu s
[OGL LOG][Proc: 0]gather_initGuess : 2 mu s
[OGL LOG][Proc: 0]gather_RHS : 271613 mu s
[OGL LOG][Proc: 0]gather_global_matrix : 1 mu s
read from registry
[OGL LOG][Proc: 0]init_precond : 15 mu s
[OGL LOG][Proc: 0]generate_solver : 2 mu s
[OGL LOG][Proc: 0]solve : 158777660 mu s
[OGL LOG][Proc: 0]retrieve_result_from_device : 267356 mu s
nonehipGKOCG:  Solving for p, Initial residual = 0.947125, Final residual = 3.52458e-07, No Iterations 4451
linear solve p 159798047
time step continuity errors : sum local = 5.63533e-11, global = -5.77501e-22, cumulative = 3.7336e-21
[OGL LOG][Proc: 0]global_index_init : 1228 mu s
[OGL LOG][Proc: 0]global_index_init : 4 mu s
[OGL LOG][Proc: 0]global_index_init : 5 mu s
[OGL LOG][Proc: 0]global_index_init : 4 mu s
[OGL LOG][Proc: 0]update_host_matrix_data : 318244 mu s
[OGL LOG][Proc: 0]gather_initGuess : 6 mu s
[OGL LOG][Proc: 0]gather_RHS : 274745 mu s
[OGL LOG][Proc: 0]gather_global_matrix : 1 mu s
read from registry
[OGL LOG][Proc: 0]init_precond : 13 mu s
[OGL LOG][Proc: 0]generate_solver : 2 mu s
[OGL LOG][Proc: 0]solve : 155844331 mu s
[OGL LOG][Proc: 0]retrieve_result_from_device : 273536 mu s
nonehipGKOCG:  Solving for p, Initial residual = 0.903247, Final residual = 3.32338e-07, No Iterations 4451
linear solve p 156869630
time step continuity errors : sum local = 5.41956e-11, global = -2.88587e-22, cumulative = 3.44502e-21
ExecutionTime = 2665.97 s  ClockTime = 2660 s

Time = 0.0006

Courant Number mean: 0.0347242 max: 1.14003
DILUPBiCGStab:  Solving for Ux, Initial residual = 0.0604533, Final residual = 0.0139842, No Iterations 5
DILUPBiCGStab:  Solving for Uy, Initial residual = 0.465811, Final residual = 0.0774639, No Iterations 5
DILUPBiCGStab:  Solving for Uz, Initial residual = 0.867336, Final residual = 0.201133, No Iterations 5
linear solve U 13991234
[OGL LOG][Proc: 0]global_index_init : 1496 mu s
[OGL LOG][Proc: 0]global_index_init : 4 mu s
[OGL LOG][Proc: 0]global_index_init : 5 mu s
[OGL LOG][Proc: 0]global_index_init : 5 mu s
[OGL LOG][Proc: 0]update_host_matrix_data : 316951 mu s
[OGL LOG][Proc: 0]gather_initGuess : 6 mu s
[OGL LOG][Proc: 0]gather_RHS : 273004 mu s
[OGL LOG][Proc: 0]gather_global_matrix : 1 mu s
read from registry
[OGL LOG][Proc: 0]init_precond : 14 mu s
[OGL LOG][Proc: 0]generate_solver : 2 mu s
[OGL LOG][Proc: 0]solve : 157661401 mu s
[OGL LOG][Proc: 0]retrieve_result_from_device : 274364 mu s
nonehipGKOCG:  Solving for p, Initial residual = 0.975349, Final residual = 3.28241e-07, No Iterations 4451
linear solve p 158685104
time step continuity errors : sum local = 9.56484e-11, global = -3.44796e-22, cumulative = 3.10022e-21
[OGL LOG][Proc: 0]global_index_init : 1283 mu s
[OGL LOG][Proc: 0]global_index_init : 3 mu s
[OGL LOG][Proc: 0]global_index_init : 6 mu s
[OGL LOG][Proc: 0]global_index_init : 3 mu s
[OGL LOG][Proc: 0]update_host_matrix_data : 318783 mu s
[OGL LOG][Proc: 0]gather_initGuess : 6 mu s
[OGL LOG][Proc: 0]gather_RHS : 270388 mu s
[OGL LOG][Proc: 0]gather_global_matrix : 1 mu s
read from registry
[OGL LOG][Proc: 0]init_precond : 15 mu s
[OGL LOG][Proc: 0]generate_solver : 2 mu s
[OGL LOG][Proc: 0]solve : 158837417 mu s
[OGL LOG][Proc: 0]retrieve_result_from_device : 259023 mu s
nonehipGKOCG:  Solving for p, Initial residual = 0.93795, Final residual = 3.15708e-07, No Iterations 4451
linear solve p 159844070
time step continuity errors : sum local = 9.2546e-11, global = -1.04818e-22, cumulative = 2.9954e-21
ExecutionTime = 3011.73 s  ClockTime = 3002 s

End

Finalising parallel run
================================================================================
hash: 8a0d8d4c529c641eda6aba07887528df
/*---------------------------------------------------------------------------*\
| =========                 |                                                 |
| \\      /  F ield         | OpenFOAM: The Open Source CFD Toolbox           |
|  \\    /   O peration     | Version:  v2106                                 |
|   \\  /    A nd           | Website:  www.openfoam.com                      |
|    \\/     M anipulation  |                                                 |
\*---------------------------------------------------------------------------*/
Build  : f815a12bba-20210902 OPENFOAM=2106
Arch   : "LSB;label=32;scalar=64"
Exec   : icoFoam -parallel
Date   : Jan 30 2022
Time   : 18:31:44
Host   : nla-gpu2.ianm.kit.edu
PID    : 1732949
I/O    : uncollated
Case   : /home/greole/data/code/ogl_labbook/lidDrivenCavity3D/resolution/Variation_mesh/400/Variation_matrix_solver/BiCGStab_NoPrecond_HIP/Variation_mpiRank/8/base
nProcs : 8
Hosts  :
(
    (nla-gpu2.ianm.kit.edu 8)
)
Pstream initialized with:
    floatTransfer      : 0
    nProcsSimpleSum    : 0
    commsType          : nonBlocking
    polling iterations : 0
trapFpe: Floating point exception trapping enabled (FOAM_SIGFPE).
fileModificationChecking : Monitoring run-time modified files using timeStampMaster (fileModificationSkew 5, maxFileModificationPolls 20)
allowSystemOperations : Allowing user-supplied system call operations

// * * * * * * * * * * * * * * * * * * * * * * * * * * * * * * * * * * * * * //
Create time

Create mesh for time = 0


PISO: Operating solver in PISO mode

Reading transportProperties

Reading field p

Reading field U

Reading/calculating face flux field phi


Starting time loop

Time = 0.00025

Courant Number mean: 0 max: 0
DILUPBiCGStab:  Solving for Ux, Initial residual = 1, Final residual = 0.0332331, No Iterations 5
DILUPBiCGStab:  Solving for Uy:  solution singularity
DILUPBiCGStab:  Solving for Uz:  solution singularity
linear solve U 3625601
[OGL LOG][Proc: 0]global_index_init : 34577 mu s
[OGL LOG][Proc: 0]global_index_init : 5 mu s
[OGL LOG][Proc: 0]global_index_init : 4 mu s
[OGL LOG][Proc: 0]global_index_init : 4 mu s
[OGL LOG][Proc: 0]init_host_sparsity_pattern : 535727968 mu s
[OGL LOG][Proc: 0]update_host_matrix_data : 206703 mu s
[OGL LOG][Proc: 0]convert_coo_to_csr : 19264 mu s
[OGL LOG][Proc: 0]gather_initGuess : 146181 mu s
[OGL LOG][Proc: 0]gather_RHS : 136827 mu s
[OGL LOG][Proc: 0]gather_global_matrix : 0 mu s
[OGL LOG][Proc: 0]init_precond : 85 mu s
[OGL LOG][Proc: 0]generate_solver : 23 mu s
[OGL LOG][Proc: 0]solve : 183444244 mu s
[OGL LOG][Proc: 0]retrieve_result_from_device : 141836 mu s
nonehipGKOBiCGStab:  Solving for p, Initial residual = 1, Final residual = 3.84592e-07, No Iterations 5162
linear solve p 776742489
time step continuity errors : sum local = 0.000150191, global = -1.60936e-19, cumulative = -1.60936e-19
[OGL LOG][Proc: 0]global_index_init : 694 mu s
[OGL LOG][Proc: 0]global_index_init : 4 mu s
[OGL LOG][Proc: 0]global_index_init : 5 mu s
[OGL LOG][Proc: 0]global_index_init : 3 mu s
[OGL LOG][Proc: 0]update_host_matrix_data : 186079 mu s
[OGL LOG][Proc: 0]gather_initGuess : 17 mu s
[OGL LOG][Proc: 0]gather_RHS : 147241 mu s
[OGL LOG][Proc: 0]gather_global_matrix : 1 mu s
read from registry
[OGL LOG][Proc: 0]init_precond : 37 mu s
[OGL LOG][Proc: 0]generate_solver : 3 mu s
[OGL LOG][Proc: 0]solve : 168871964 mu s
[OGL LOG][Proc: 0]retrieve_result_from_device : 134312 mu s
nonehipGKOBiCGStab:  Solving for p, Initial residual = 0.955261, Final residual = 8.00461e-07, No Iterations 4944
linear solve p 169412780
time step continuity errors : sum local = 4.16467e-10, global = -1.03863e-22, cumulative = -1.6104e-19
ExecutionTime = 1003.72 s  ClockTime = 992 s

Time = 0.0005

Courant Number mean: 0.0250025 max: 0.903906
DILUPBiCGStab:  Solving for Ux, Initial residual = 0.0987262, Final residual = 0.0228949, No Iterations 5
DILUPBiCGStab:  Solving for Uy, Initial residual = 0.586821, Final residual = 0.133421, No Iterations 5
DILUPBiCGStab:  Solving for Uz, Initial residual = 0.894108, Final residual = 0.185454, No Iterations 5
linear solve U 6981148
[OGL LOG][Proc: 0]global_index_init : 292 mu s
[OGL LOG][Proc: 0]global_index_init : 5 mu s
[OGL LOG][Proc: 0]global_index_init : 5 mu s
[OGL LOG][Proc: 0]global_index_init : 3 mu s
[OGL LOG][Proc: 0]update_host_matrix_data : 166851 mu s
[OGL LOG][Proc: 0]gather_initGuess : 2 mu s
[OGL LOG][Proc: 0]gather_RHS : 134648 mu s
[OGL LOG][Proc: 0]gather_global_matrix : 1 mu s
read from registry
[OGL LOG][Proc: 0]init_precond : 17 mu s
[OGL LOG][Proc: 0]generate_solver : 2 mu s
[OGL LOG][Proc: 0]solve : 177239854 mu s
[OGL LOG][Proc: 0]retrieve_result_from_device : 136064 mu s
nonehipGKOBiCGStab:  Solving for p, Initial residual = 0.98612, Final residual = 1.46754e-07, No Iterations 5221
linear solve p 177761446
time step continuity errors : sum local = 4.94861e-07, global = -6.11286e-22, cumulative = -1.61651e-19
[OGL LOG][Proc: 0]global_index_init : 286 mu s
[OGL LOG][Proc: 0]global_index_init : 4 mu s
[OGL LOG][Proc: 0]global_index_init : 8 mu s
[OGL LOG][Proc: 0]global_index_init : 3 mu s
[OGL LOG][Proc: 0]update_host_matrix_data : 162392 mu s
[OGL LOG][Proc: 0]gather_initGuess : 2 mu s
[OGL LOG][Proc: 0]gather_RHS : 135053 mu s
[OGL LOG][Proc: 0]gather_global_matrix : 1 mu s
read from registry
[OGL LOG][Proc: 0]init_precond : 18 mu s
[OGL LOG][Proc: 0]generate_solver : 2 mu s
[OGL LOG][Proc: 0]solve : 159141359 mu s
[OGL LOG][Proc: 0]retrieve_result_from_device : 146380 mu s
nonehipGKOBiCGStab:  Solving for p, Initial residual = 0.929233, Final residual = 1.16096e-07, No Iterations 4472
linear solve p 159669950
time step continuity errors : sum local = 1.93955e-10, global = 5.43986e-22, cumulative = -1.61107e-19
ExecutionTime = 1362.27 s  ClockTime = 1341 s

Time = 0.00075

Courant Number mean: 0.0406471 max: 1.10875
DILUPBiCGStab:  Solving for Ux, Initial residual = 0.0686035, Final residual = 0.0135273, No Iterations 5
DILUPBiCGStab:  Solving for Uy, Initial residual = 0.495338, Final residual = 0.0675617, No Iterations 5
DILUPBiCGStab:  Solving for Uz, Initial residual = 0.934113, Final residual = 0.121688, No Iterations 5
linear solve U 7030708
[OGL LOG][Proc: 0]global_index_init : 120 mu s
[OGL LOG][Proc: 0]global_index_init : 4 mu s
[OGL LOG][Proc: 0]global_index_init : 6 mu s
[OGL LOG][Proc: 0]global_index_init : 3 mu s
[OGL LOG][Proc: 0]update_host_matrix_data : 162422 mu s
[OGL LOG][Proc: 0]gather_initGuess : 2 mu s
[OGL LOG][Proc: 0]gather_RHS : 134959 mu s
[OGL LOG][Proc: 0]gather_global_matrix : 1 mu s
read from registry
[OGL LOG][Proc: 0]init_precond : 17 mu s
[OGL LOG][Proc: 0]generate_solver : 2 mu s
[OGL LOG][Proc: 0]solve : 192622082 mu s
[OGL LOG][Proc: 0]retrieve_result_from_device : 145127 mu s
nonehipGKOBiCGStab:  Solving for p, Initial residual = 0.989752, Final residual = 5.88468e-07, No Iterations 5518
linear solve p 193150289
time step continuity errors : sum local = 9.28055e-10, global = 5.98465e-22, cumulative = -1.60509e-19
[OGL LOG][Proc: 0]global_index_init : 308 mu s
[OGL LOG][Proc: 0]global_index_init : 5 mu s
[OGL LOG][Proc: 0]global_index_init : 6 mu s
[OGL LOG][Proc: 0]global_index_init : 3 mu s
[OGL LOG][Proc: 0]update_host_matrix_data : 162564 mu s
[OGL LOG][Proc: 0]gather_initGuess : 2 mu s
[OGL LOG][Proc: 0]gather_RHS : 134610 mu s
[OGL LOG][Proc: 0]gather_global_matrix : 1 mu s
read from registry
[OGL LOG][Proc: 0]init_precond : 19 mu s
[OGL LOG][Proc: 0]generate_solver : 2 mu s
[OGL LOG][Proc: 0]solve : 143923145 mu s
[OGL LOG][Proc: 0]retrieve_result_from_device : 139083 mu s
nonehipGKOBiCGStab:  Solving for p, Initial residual = 0.936114, Final residual = 2.63402e-07, No Iterations 4180
linear solve p 144444853
time step continuity errors : sum local = 4.2664e-10, global = -8.72934e-23, cumulative = -1.60596e-19
ExecutionTime = 1721.05 s  ClockTime = 1690 s

End

Finalising parallel run
================================================================================
hash: 5c8324a4270ccd6bc4db833a96d22b9e
/*---------------------------------------------------------------------------*\
| =========                 |                                                 |
| \\      /  F ield         | OpenFOAM: The Open Source CFD Toolbox           |
|  \\    /   O peration     | Version:  v2106                                 |
|   \\  /    A nd           | Website:  www.openfoam.com                      |
|    \\/     M anipulation  |                                                 |
\*---------------------------------------------------------------------------*/
Build  : f815a12bba-20210902 OPENFOAM=2106
Arch   : "LSB;label=32;scalar=64"
Exec   : icoFoam -parallel
Date   : Jan 30 2022
Time   : 18:59:56
Host   : nla-gpu2.ianm.kit.edu
PID    : 1748565
I/O    : uncollated
Case   : /home/greole/data/code/ogl_labbook/lidDrivenCavity3D/resolution/Variation_mesh/400/Variation_matrix_solver/CG_NoPrecond_HIP/Variation_mpiRank/8/base
nProcs : 8
Hosts  :
(
    (nla-gpu2.ianm.kit.edu 8)
)
Pstream initialized with:
    floatTransfer      : 0
    nProcsSimpleSum    : 0
    commsType          : nonBlocking
    polling iterations : 0
trapFpe: Floating point exception trapping enabled (FOAM_SIGFPE).
fileModificationChecking : Monitoring run-time modified files using timeStampMaster (fileModificationSkew 5, maxFileModificationPolls 20)
allowSystemOperations : Allowing user-supplied system call operations

// * * * * * * * * * * * * * * * * * * * * * * * * * * * * * * * * * * * * * //
Create time

Create mesh for time = 0


PISO: Operating solver in PISO mode

Reading transportProperties

Reading field p

Reading field U

Reading/calculating face flux field phi


Starting time loop

Time = 0.00025

Courant Number mean: 0 max: 0
DILUPBiCGStab:  Solving for Ux, Initial residual = 1, Final residual = 0.0332331, No Iterations 5
DILUPBiCGStab:  Solving for Uy:  solution singularity
DILUPBiCGStab:  Solving for Uz:  solution singularity
linear solve U 3635494
[OGL LOG][Proc: 0]global_index_init : 27806 mu s
[OGL LOG][Proc: 0]global_index_init : 4 mu s
[OGL LOG][Proc: 0]global_index_init : 3 mu s
[OGL LOG][Proc: 0]global_index_init : 4 mu s
[OGL LOG][Proc: 0]init_host_sparsity_pattern : 534154512 mu s
[OGL LOG][Proc: 0]update_host_matrix_data : 206728 mu s
[OGL LOG][Proc: 0]convert_coo_to_csr : 19532 mu s
[OGL LOG][Proc: 0]gather_initGuess : 149992 mu s
[OGL LOG][Proc: 0]gather_RHS : 142028 mu s
[OGL LOG][Proc: 0]gather_global_matrix : 1 mu s
[OGL LOG][Proc: 0]init_precond : 86 mu s
[OGL LOG][Proc: 0]generate_solver : 22 mu s
[OGL LOG][Proc: 0]solve : 67220685 mu s
[OGL LOG][Proc: 0]retrieve_result_from_device : 141407 mu s
nonehipGKOCG:  Solving for p, Initial residual = 1, Final residual = 9.85557e-07, No Iterations 3644
linear solve p 658898649
time step continuity errors : sum local = 5.53733e-11, global = 3.61425e-23, cumulative = 3.61425e-23
[OGL LOG][Proc: 0]global_index_init : 27 mu s
[OGL LOG][Proc: 0]global_index_init : 4 mu s
[OGL LOG][Proc: 0]global_index_init : 4 mu s
[OGL LOG][Proc: 0]global_index_init : 10 mu s
[OGL LOG][Proc: 0]update_host_matrix_data : 186916 mu s
[OGL LOG][Proc: 0]gather_initGuess : 20 mu s
[OGL LOG][Proc: 0]gather_RHS : 148609 mu s
[OGL LOG][Proc: 0]gather_global_matrix : 0 mu s
read from registry
[OGL LOG][Proc: 0]init_precond : 39 mu s
[OGL LOG][Proc: 0]generate_solver : 2 mu s
[OGL LOG][Proc: 0]solve : 67656281 mu s
[OGL LOG][Proc: 0]retrieve_result_from_device : 137920 mu s
nonehipGKOCG:  Solving for p, Initial residual = 0.835498, Final residual = 2.83792e-07, No Iterations 3771
linear solve p 68209772
time step continuity errors : sum local = 1.89908e-11, global = -2.36368e-22, cumulative = -2.00226e-22
ExecutionTime = 775.11 s  ClockTime = 771 s

Time = 0.0005

Courant Number mean: 0.0249981 max: 0.903906
DILUPBiCGStab:  Solving for Ux, Initial residual = 0.0981542, Final residual = 0.0224966, No Iterations 5
DILUPBiCGStab:  Solving for Uy, Initial residual = 0.574372, Final residual = 0.12607, No Iterations 5
DILUPBiCGStab:  Solving for Uz, Initial residual = 0.976392, Final residual = 0.241031, No Iterations 5
linear solve U 7009021
[OGL LOG][Proc: 0]global_index_init : 329 mu s
[OGL LOG][Proc: 0]global_index_init : 3 mu s
[OGL LOG][Proc: 0]global_index_init : 6 mu s
[OGL LOG][Proc: 0]global_index_init : 3 mu s
[OGL LOG][Proc: 0]update_host_matrix_data : 166171 mu s
[OGL LOG][Proc: 0]gather_initGuess : 7 mu s
[OGL LOG][Proc: 0]gather_RHS : 137409 mu s
[OGL LOG][Proc: 0]gather_global_matrix : 1 mu s
read from registry
[OGL LOG][Proc: 0]init_precond : 20 mu s
[OGL LOG][Proc: 0]generate_solver : 2 mu s
[OGL LOG][Proc: 0]solve : 69868782 mu s
[OGL LOG][Proc: 0]retrieve_result_from_device : 142965 mu s
nonehipGKOCG:  Solving for p, Initial residual = 0.939412, Final residual = 1.92926e-07, No Iterations 3751
linear solve p 70399163
time step continuity errors : sum local = 4.20129e-11, global = 6.5985e-22, cumulative = 4.59624e-22
[OGL LOG][Proc: 0]global_index_init : 258 mu s
[OGL LOG][Proc: 0]global_index_init : 3 mu s
[OGL LOG][Proc: 0]global_index_init : 7 mu s
[OGL LOG][Proc: 0]global_index_init : 3 mu s
[OGL LOG][Proc: 0]update_host_matrix_data : 162318 mu s
[OGL LOG][Proc: 0]gather_initGuess : 7 mu s
[OGL LOG][Proc: 0]gather_RHS : 138223 mu s
[OGL LOG][Proc: 0]gather_global_matrix : 0 mu s
read from registry
[OGL LOG][Proc: 0]init_precond : 18 mu s
[OGL LOG][Proc: 0]generate_solver : 2 mu s
[OGL LOG][Proc: 0]solve : 71746143 mu s
[OGL LOG][Proc: 0]retrieve_result_from_device : 141249 mu s
nonehipGKOCG:  Solving for p, Initial residual = 0.894577, Final residual = 1.81217e-07, No Iterations 3751
linear solve p 72270394
time step continuity errors : sum local = 4.02425e-11, global = 2.66353e-23, cumulative = 4.86259e-22
ExecutionTime = 933.33 s  ClockTime = 926 s

Time = 0.00075

Courant Number mean: 0.0405234 max: 1.11034
DILUPBiCGStab:  Solving for Ux, Initial residual = 0.0634788, Final residual = 0.0117727, No Iterations 5
DILUPBiCGStab:  Solving for Uy, Initial residual = 0.447073, Final residual = 0.0596303, No Iterations 5
DILUPBiCGStab:  Solving for Uz, Initial residual = 0.866448, Final residual = 0.165243, No Iterations 5
linear solve U 7046289
[OGL LOG][Proc: 0]global_index_init : 3041 mu s
[OGL LOG][Proc: 0]global_index_init : 4 mu s
[OGL LOG][Proc: 0]global_index_init : 7 mu s
[OGL LOG][Proc: 0]global_index_init : 3 mu s
[OGL LOG][Proc: 0]update_host_matrix_data : 163370 mu s
[OGL LOG][Proc: 0]gather_initGuess : 7 mu s
[OGL LOG][Proc: 0]gather_RHS : 137924 mu s
[OGL LOG][Proc: 0]gather_global_matrix : 0 mu s
read from registry
[OGL LOG][Proc: 0]init_precond : 19 mu s
[OGL LOG][Proc: 0]generate_solver : 2 mu s
[OGL LOG][Proc: 0]solve : 67000591 mu s
[OGL LOG][Proc: 0]retrieve_result_from_device : 143116 mu s
nonehipGKOCG:  Solving for p, Initial residual = 0.970319, Final residual = 1.69872e-07, No Iterations 3751
linear solve p 67529578
time step continuity errors : sum local = 6.2927e-11, global = -2.45715e-22, cumulative = 2.40544e-22
[OGL LOG][Proc: 0]global_index_init : 2905 mu s
[OGL LOG][Proc: 0]global_index_init : 4 mu s
[OGL LOG][Proc: 0]global_index_init : 5 mu s
[OGL LOG][Proc: 0]global_index_init : 4 mu s
[OGL LOG][Proc: 0]update_host_matrix_data : 162441 mu s
[OGL LOG][Proc: 0]gather_initGuess : 7 mu s
[OGL LOG][Proc: 0]gather_RHS : 138035 mu s
[OGL LOG][Proc: 0]gather_global_matrix : 1 mu s
read from registry
[OGL LOG][Proc: 0]init_precond : 16 mu s
[OGL LOG][Proc: 0]generate_solver : 2 mu s
[OGL LOG][Proc: 0]solve : 70588095 mu s
[OGL LOG][Proc: 0]retrieve_result_from_device : 142387 mu s
nonehipGKOCG:  Solving for p, Initial residual = 0.933815, Final residual = 1.64817e-07, No Iterations 3751
linear solve p 71115172
time step continuity errors : sum local = 6.12811e-11, global = 3.51729e-23, cumulative = 2.75717e-22
ExecutionTime = 1087.5 s  ClockTime = 1076 s

End

Finalising parallel run
================================================================================
