hash: 403947542bb80295fb8d3635c7f0c5b1
/*---------------------------------------------------------------------------*\
| =========                 |                                                 |
| \\      /  F ield         | OpenFOAM: The Open Source CFD Toolbox           |
|  \\    /   O peration     | Version:  2112                                  |
|   \\  /    A nd           | Website:  www.openfoam.com                      |
|    \\/     M anipulation  |                                                 |
\*---------------------------------------------------------------------------*/
Build  : d44c8318f0-20220111 OPENFOAM=2112 version=v2112
Arch   : "LSB;label=32;scalar=64"
Exec   : icoFoam -parallel
Date   : Jan 30 2022
Time   : 07:43:39
Host   : hkn0425.localdomain
PID    : 2267217
I/O    : uncollated
Case   : /hkfs/home/project/hk-project-test-fine/eq4036/data/code/ogl_labbook/lidDrivenCavity/resolution/Variation_mesh/100/Variation_matrix_solver/BiCGStab_NoPrecond_CUDA/Variation_mpiRank/8/base
nProcs : 8
Hosts  :
(
    (hkn0425.localdomain 8)
)
Pstream initialized with:
    floatTransfer      : 0
    nProcsSimpleSum    : 0
    commsType          : nonBlocking
    polling iterations : 0
trapFpe: Floating point exception trapping enabled (FOAM_SIGFPE).
fileModificationChecking : Monitoring run-time modified files using timeStampMaster (fileModificationSkew 5, maxFileModificationPolls 20)
allowSystemOperations : Allowing user-supplied system call operations

// * * * * * * * * * * * * * * * * * * * * * * * * * * * * * * * * * * * * * //
Create time

Create mesh for time = 0


PISO: Operating solver in PISO mode

Reading transportProperties

Reading field p

Reading field U

Reading/calculating face flux field phi


Starting time loop

Time = 0.001

Courant Number mean: 0 max: 0
DILUPBiCGStab:  Solving for Ux, Initial residual = 1, Final residual = 0.00976191, No Iterations 5
DILUPBiCGStab:  Solving for Uy:  solution singularity
DILUPBiCGStab:  Solving for Uz:  solution singularity
linear solve U 67703
[OGL LOG][Proc: 0]global_index_init : 33952 mu s
[OGL LOG][Proc: 0]global_index_init : 46 mu s
[OGL LOG][Proc: 0]global_index_init : 1 mu s
[OGL LOG][Proc: 0]global_index_init : 1 mu s
[OGL LOG][Proc: 0]init_host_sparsity_pattern : 590952 mu s
[OGL LOG][Proc: 0]update_host_matrix_data : 5354 mu s
[OGL LOG][Proc: 0]convert_coo_to_csr : 1029 mu s
[OGL LOG][Proc: 0]gather_initGuess : 4422 mu s
[OGL LOG][Proc: 0]gather_RHS : 1935 mu s
[OGL LOG][Proc: 0]gather_global_matrix : 4 mu s
[OGL LOG][Proc: 0]init_precond : 48 mu s
[OGL LOG][Proc: 0]generate_solver : 19 mu s
[OGL LOG][Proc: 0]solve : 413403 mu s
[OGL LOG][Proc: 0]retrieve_result_from_device : 3262 mu s
nonecudaGKOBiCGStab:  Solving for p, Initial residual = 1, Final residual = 5.4595e-07, No Iterations 706
linear solve p 4390329
time step continuity errors : sum local = 0.000424942, global = -1.21973e-18, cumulative = -1.21973e-18
[OGL LOG][Proc: 0]global_index_init : 41 mu s
[OGL LOG][Proc: 0]global_index_init : 1 mu s
[OGL LOG][Proc: 0]global_index_init : 2 mu s
[OGL LOG][Proc: 0]global_index_init : 1 mu s
[OGL LOG][Proc: 0]update_host_matrix_data : 3458 mu s
[OGL LOG][Proc: 0]gather_initGuess : 6 mu s
[OGL LOG][Proc: 0]gather_RHS : 4025 mu s
[OGL LOG][Proc: 0]gather_global_matrix : 0 mu s
read from registry
[OGL LOG][Proc: 0]init_precond : 17 mu s
[OGL LOG][Proc: 0]generate_solver : 1 mu s
[OGL LOG][Proc: 0]solve : 381783 mu s
[OGL LOG][Proc: 0]retrieve_result_from_device : 2275 mu s
nonecudaGKOBiCGStab:  Solving for p, Initial residual = 0.87555, Final residual = 2.76052e-07, No Iterations 854
linear solve p 393831
time step continuity errors : sum local = 7.20932e-10, global = 5.72817e-21, cumulative = -1.214e-18
ExecutionTime = 3.65 s  ClockTime = 6 s

Time = 0.002

Courant Number mean: 0.0555313 max: 0.807219
DILUPBiCGStab:  Solving for Ux, Initial residual = 0.144607, Final residual = 0.00531426, No Iterations 5
DILUPBiCGStab:  Solving for Uy, Initial residual = 0.449861, Final residual = 0.0143643, No Iterations 5
DILUPBiCGStab:  Solving for Uz, Initial residual = 0.89586, Final residual = 0.0481948, No Iterations 5
linear solve U 127177
[OGL LOG][Proc: 0]global_index_init : 43 mu s
[OGL LOG][Proc: 0]global_index_init : 1 mu s
[OGL LOG][Proc: 0]global_index_init : 2 mu s
[OGL LOG][Proc: 0]global_index_init : 1 mu s
[OGL LOG][Proc: 0]update_host_matrix_data : 3563 mu s
[OGL LOG][Proc: 0]gather_initGuess : 1 mu s
[OGL LOG][Proc: 0]gather_RHS : 3488 mu s
[OGL LOG][Proc: 0]gather_global_matrix : 0 mu s
read from registry
[OGL LOG][Proc: 0]init_precond : 7 mu s
[OGL LOG][Proc: 0]generate_solver : 2 mu s
[OGL LOG][Proc: 0]solve : 334990 mu s
[OGL LOG][Proc: 0]retrieve_result_from_device : 1568 mu s
nonecudaGKOBiCGStab:  Solving for p, Initial residual = 0.937205, Final residual = 7.37877e-08, No Iterations 748
linear solve p 345675
time step continuity errors : sum local = 4.88219e-10, global = -1.08621e-20, cumulative = -1.22486e-18
[OGL LOG][Proc: 0]global_index_init : 12 mu s
[OGL LOG][Proc: 0]global_index_init : 2 mu s
[OGL LOG][Proc: 0]global_index_init : 2 mu s
[OGL LOG][Proc: 0]global_index_init : 1 mu s
[OGL LOG][Proc: 0]update_host_matrix_data : 4493 mu s
[OGL LOG][Proc: 0]gather_initGuess : 1 mu s
[OGL LOG][Proc: 0]gather_RHS : 2692 mu s
[OGL LOG][Proc: 0]gather_global_matrix : 0 mu s
read from registry
[OGL LOG][Proc: 0]init_precond : 7 mu s
[OGL LOG][Proc: 0]generate_solver : 1 mu s
[OGL LOG][Proc: 0]solve : 330285 mu s
[OGL LOG][Proc: 0]retrieve_result_from_device : 1653 mu s
nonecudaGKOBiCGStab:  Solving for p, Initial residual = 0.860321, Final residual = 4.95029e-07, No Iterations 740
linear solve p 341144
time step continuity errors : sum local = 3.66796e-05, global = -3.13402e-19, cumulative = -1.53826e-18
ExecutionTime = 4.56 s  ClockTime = 7 s

Time = 0.003

Courant Number mean: 0.0852325 max: 0.944278
DILUPBiCGStab:  Solving for Ux, Initial residual = 0.0739174, Final residual = 0.00187805, No Iterations 5
DILUPBiCGStab:  Solving for Uy, Initial residual = 0.274598, Final residual = 0.00706835, No Iterations 5
DILUPBiCGStab:  Solving for Uz, Initial residual = 0.824011, Final residual = 0.0281671, No Iterations 5
linear solve U 131672
[OGL LOG][Proc: 0]global_index_init : 39 mu s
[OGL LOG][Proc: 0]global_index_init : 2 mu s
[OGL LOG][Proc: 0]global_index_init : 1 mu s
[OGL LOG][Proc: 0]global_index_init : 1 mu s
[OGL LOG][Proc: 0]update_host_matrix_data : 3601 mu s
[OGL LOG][Proc: 0]gather_initGuess : 1 mu s
[OGL LOG][Proc: 0]gather_RHS : 3023 mu s
[OGL LOG][Proc: 0]gather_global_matrix : 0 mu s
read from registry
[OGL LOG][Proc: 0]init_precond : 7 mu s
[OGL LOG][Proc: 0]generate_solver : 1 mu s
[OGL LOG][Proc: 0]solve : 374674 mu s
[OGL LOG][Proc: 0]retrieve_result_from_device : 1592 mu s
nonecudaGKOBiCGStab:  Solving for p, Initial residual = 0.930675, Final residual = 5.76838e-07, No Iterations 841
linear solve p 385132
time step continuity errors : sum local = 1.43115e-08, global = 1.25206e-20, cumulative = -1.52574e-18
[OGL LOG][Proc: 0]global_index_init : 20 mu s
[OGL LOG][Proc: 0]global_index_init : 1 mu s
[OGL LOG][Proc: 0]global_index_init : 1 mu s
[OGL LOG][Proc: 0]global_index_init : 1 mu s
[OGL LOG][Proc: 0]update_host_matrix_data : 3586 mu s
[OGL LOG][Proc: 0]gather_initGuess : 1 mu s
[OGL LOG][Proc: 0]gather_RHS : 2625 mu s
[OGL LOG][Proc: 0]gather_global_matrix : 0 mu s
read from registry
[OGL LOG][Proc: 0]init_precond : 8 mu s
[OGL LOG][Proc: 0]generate_solver : 1 mu s
[OGL LOG][Proc: 0]solve : 345455 mu s
[OGL LOG][Proc: 0]retrieve_result_from_device : 1593 mu s
nonecudaGKOBiCGStab:  Solving for p, Initial residual = 0.862968, Final residual = 3.59397e-07, No Iterations 776
linear solve p 355296
time step continuity errors : sum local = 4.9194e-05, global = -7.96211e-20, cumulative = -1.60536e-18
ExecutionTime = 5.52 s  ClockTime = 8 s

End

Finalising parallel run
================================================================================
hash: 552eafe4b5304828e005f4f3af9dd83d
/*---------------------------------------------------------------------------*\
| =========                 |                                                 |
| \\      /  F ield         | OpenFOAM: The Open Source CFD Toolbox           |
|  \\    /   O peration     | Version:  2112                                  |
|   \\  /    A nd           | Website:  www.openfoam.com                      |
|    \\/     M anipulation  |                                                 |
\*---------------------------------------------------------------------------*/
Build  : d44c8318f0-20220111 OPENFOAM=2112 version=v2112
Arch   : "LSB;label=32;scalar=64"
Exec   : icoFoam -parallel
Date   : Jan 30 2022
Time   : 07:43:49
Host   : hkn0425.localdomain
PID    : 2267439
I/O    : uncollated
Case   : /hkfs/home/project/hk-project-test-fine/eq4036/data/code/ogl_labbook/lidDrivenCavity/resolution/Variation_mesh/100/Variation_matrix_solver/CG_NoPrecond_CUDA/Variation_mpiRank/8/base
nProcs : 8
Hosts  :
(
    (hkn0425.localdomain 8)
)
Pstream initialized with:
    floatTransfer      : 0
    nProcsSimpleSum    : 0
    commsType          : nonBlocking
    polling iterations : 0
trapFpe: Floating point exception trapping enabled (FOAM_SIGFPE).
fileModificationChecking : Monitoring run-time modified files using timeStampMaster (fileModificationSkew 5, maxFileModificationPolls 20)
allowSystemOperations : Allowing user-supplied system call operations

// * * * * * * * * * * * * * * * * * * * * * * * * * * * * * * * * * * * * * //
Create time

Create mesh for time = 0


PISO: Operating solver in PISO mode

Reading transportProperties

Reading field p

Reading field U

Reading/calculating face flux field phi


Starting time loop

Time = 0.001

Courant Number mean: 0 max: 0
DILUPBiCGStab:  Solving for Ux, Initial residual = 1, Final residual = 0.00976191, No Iterations 5
DILUPBiCGStab:  Solving for Uy:  solution singularity
DILUPBiCGStab:  Solving for Uz:  solution singularity
linear solve U 67547
[OGL LOG][Proc: 0]global_index_init : 54 mu s
[OGL LOG][Proc: 0]global_index_init : 2 mu s
[OGL LOG][Proc: 0]global_index_init : 1 mu s
[OGL LOG][Proc: 0]global_index_init : 1 mu s
[OGL LOG][Proc: 0]init_host_sparsity_pattern : 583202 mu s
[OGL LOG][Proc: 0]update_host_matrix_data : 5364 mu s
[OGL LOG][Proc: 0]convert_coo_to_csr : 965 mu s
[OGL LOG][Proc: 0]gather_initGuess : 4385 mu s
[OGL LOG][Proc: 0]gather_RHS : 1880 mu s
[OGL LOG][Proc: 0]gather_global_matrix : 0 mu s
[OGL LOG][Proc: 0]init_precond : 48 mu s
[OGL LOG][Proc: 0]generate_solver : 17 mu s
[OGL LOG][Proc: 0]solve : 244264 mu s
[OGL LOG][Proc: 0]retrieve_result_from_device : 3199 mu s
nonecudaGKOCG:  Solving for p, Initial residual = 1, Final residual = 9.67315e-07, No Iterations 901
linear solve p 2720729
time step continuity errors : sum local = 5.59741e-10, global = 1.59842e-20, cumulative = 1.59842e-20
[OGL LOG][Proc: 0]global_index_init : 61 mu s
[OGL LOG][Proc: 0]global_index_init : 1 mu s
[OGL LOG][Proc: 0]global_index_init : 2 mu s
[OGL LOG][Proc: 0]global_index_init : 1 mu s
[OGL LOG][Proc: 0]update_host_matrix_data : 3591 mu s
[OGL LOG][Proc: 0]gather_initGuess : 6 mu s
[OGL LOG][Proc: 0]gather_RHS : 3816 mu s
[OGL LOG][Proc: 0]gather_global_matrix : 0 mu s
read from registry
[OGL LOG][Proc: 0]init_precond : 17 mu s
[OGL LOG][Proc: 0]generate_solver : 1 mu s
[OGL LOG][Proc: 0]solve : 196128 mu s
[OGL LOG][Proc: 0]retrieve_result_from_device : 2456 mu s
nonecudaGKOCG:  Solving for p, Initial residual = 0.777378, Final residual = 6.70136e-07, No Iterations 901
linear solve p 208150
time step continuity errors : sum local = 4.88704e-10, global = -7.35588e-22, cumulative = 1.52486e-20
ExecutionTime = 3.2 s  ClockTime = 4 s

Time = 0.002

Courant Number mean: 0.0555224 max: 0.807219
DILUPBiCGStab:  Solving for Ux, Initial residual = 0.137481, Final residual = 0.00480444, No Iterations 5
DILUPBiCGStab:  Solving for Uy, Initial residual = 0.431367, Final residual = 0.0127824, No Iterations 5
DILUPBiCGStab:  Solving for Uz, Initial residual = 0.97357, Final residual = 0.0274119, No Iterations 5
linear solve U 132893
[OGL LOG][Proc: 0]global_index_init : 35 mu s
[OGL LOG][Proc: 0]global_index_init : 1 mu s
[OGL LOG][Proc: 0]global_index_init : 2 mu s
[OGL LOG][Proc: 0]global_index_init : 1 mu s
[OGL LOG][Proc: 0]update_host_matrix_data : 3600 mu s
[OGL LOG][Proc: 0]gather_initGuess : 1 mu s
[OGL LOG][Proc: 0]gather_RHS : 3353 mu s
[OGL LOG][Proc: 0]gather_global_matrix : 0 mu s
read from registry
[OGL LOG][Proc: 0]init_precond : 7 mu s
[OGL LOG][Proc: 0]generate_solver : 1 mu s
[OGL LOG][Proc: 0]solve : 196009 mu s
[OGL LOG][Proc: 0]retrieve_result_from_device : 1711 mu s
nonecudaGKOCG:  Solving for p, Initial residual = 0.808994, Final residual = 4.77156e-07, No Iterations 901
linear solve p 206661
time step continuity errors : sum local = 5.11532e-10, global = -7.3955e-21, cumulative = 7.85307e-21
[OGL LOG][Proc: 0]global_index_init : 9 mu s
[OGL LOG][Proc: 0]global_index_init : 2 mu s
[OGL LOG][Proc: 0]global_index_init : 2 mu s
[OGL LOG][Proc: 0]global_index_init : 1 mu s
[OGL LOG][Proc: 0]update_host_matrix_data : 3544 mu s
[OGL LOG][Proc: 0]gather_initGuess : 1 mu s
[OGL LOG][Proc: 0]gather_RHS : 2649 mu s
[OGL LOG][Proc: 0]gather_global_matrix : 0 mu s
read from registry
[OGL LOG][Proc: 0]init_precond : 7 mu s
[OGL LOG][Proc: 0]generate_solver : 1 mu s
[OGL LOG][Proc: 0]solve : 195846 mu s
[OGL LOG][Proc: 0]retrieve_result_from_device : 1663 mu s
nonecudaGKOCG:  Solving for p, Initial residual = 0.74964, Final residual = 4.06032e-07, No Iterations 901
linear solve p 205718
time step continuity errors : sum local = 4.4421e-10, global = -1.76767e-20, cumulative = -9.82359e-21
ExecutionTime = 3.84 s  ClockTime = 4 s

Time = 0.003

Courant Number mean: 0.0846038 max: 0.943672
DILUPBiCGStab:  Solving for Ux, Initial residual = 0.0646795, Final residual = 0.00170435, No Iterations 5
DILUPBiCGStab:  Solving for Uy, Initial residual = 0.226339, Final residual = 0.00427099, No Iterations 5
DILUPBiCGStab:  Solving for Uz, Initial residual = 0.765697, Final residual = 0.0189349, No Iterations 5
linear solve U 132027
[OGL LOG][Proc: 0]global_index_init : 19 mu s
[OGL LOG][Proc: 0]global_index_init : 2 mu s
[OGL LOG][Proc: 0]global_index_init : 2 mu s
[OGL LOG][Proc: 0]global_index_init : 1 mu s
[OGL LOG][Proc: 0]update_host_matrix_data : 4511 mu s
[OGL LOG][Proc: 0]gather_initGuess : 3 mu s
[OGL LOG][Proc: 0]gather_RHS : 2651 mu s
[OGL LOG][Proc: 0]gather_global_matrix : 0 mu s
read from registry
[OGL LOG][Proc: 0]init_precond : 7 mu s
[OGL LOG][Proc: 0]generate_solver : 1 mu s
[OGL LOG][Proc: 0]solve : 195961 mu s
[OGL LOG][Proc: 0]retrieve_result_from_device : 1592 mu s
nonecudaGKOCG:  Solving for p, Initial residual = 0.837716, Final residual = 4.1872e-07, No Iterations 901
linear solve p 206728
time step continuity errors : sum local = 4.14454e-10, global = -2.14734e-21, cumulative = -1.19709e-20
[OGL LOG][Proc: 0]global_index_init : 22 mu s
[OGL LOG][Proc: 0]global_index_init : 1 mu s
[OGL LOG][Proc: 0]global_index_init : 2 mu s
[OGL LOG][Proc: 0]global_index_init : 1 mu s
[OGL LOG][Proc: 0]update_host_matrix_data : 3561 mu s
[OGL LOG][Proc: 0]gather_initGuess : 0 mu s
[OGL LOG][Proc: 0]gather_RHS : 2667 mu s
[OGL LOG][Proc: 0]gather_global_matrix : 0 mu s
read from registry
[OGL LOG][Proc: 0]init_precond : 7 mu s
[OGL LOG][Proc: 0]generate_solver : 1 mu s
[OGL LOG][Proc: 0]solve : 195631 mu s
[OGL LOG][Proc: 0]retrieve_result_from_device : 1914 mu s
nonecudaGKOCG:  Solving for p, Initial residual = 0.805107, Final residual = 3.93572e-07, No Iterations 901
linear solve p 205769
time step continuity errors : sum local = 3.80108e-10, global = 8.94762e-21, cumulative = -3.02331e-21
ExecutionTime = 4.48 s  ClockTime = 5 s

End

Finalising parallel run
================================================================================
hash: 4390d90166a02714728e427198e6491a
/*---------------------------------------------------------------------------*\
| =========                 |                                                 |
| \\      /  F ield         | OpenFOAM: The Open Source CFD Toolbox           |
|  \\    /   O peration     | Version:  2112                                  |
|   \\  /    A nd           | Website:  www.openfoam.com                      |
|    \\/     M anipulation  |                                                 |
\*---------------------------------------------------------------------------*/
Build  : d44c8318f0-20220111 OPENFOAM=2112 version=v2112
Arch   : "LSB;label=32;scalar=64"
Exec   : icoFoam -parallel
Date   : Jan 30 2022
Time   : 07:43:52
Host   : hkn0426.localdomain
PID    : 3623488
I/O    : uncollated
Case   : /hkfs/home/project/hk-project-test-fine/eq4036/data/code/ogl_labbook/lidDrivenCavity/resolution/Variation_mesh/200/Variation_matrix_solver/BiCGStab_NoPrecond_CUDA/Variation_mpiRank/8/base
nProcs : 8
Hosts  :
(
    (hkn0426.localdomain 8)
)
Pstream initialized with:
    floatTransfer      : 0
    nProcsSimpleSum    : 0
    commsType          : nonBlocking
    polling iterations : 0
trapFpe: Floating point exception trapping enabled (FOAM_SIGFPE).
fileModificationChecking : Monitoring run-time modified files using timeStampMaster (fileModificationSkew 5, maxFileModificationPolls 20)
allowSystemOperations : Allowing user-supplied system call operations

// * * * * * * * * * * * * * * * * * * * * * * * * * * * * * * * * * * * * * //
Create time

Create mesh for time = 0


PISO: Operating solver in PISO mode

Reading transportProperties

Reading field p

Reading field U

Reading/calculating face flux field phi


Starting time loop

Time = 0.0005

Courant Number mean: 0 max: 0
DILUPBiCGStab:  Solving for Ux, Initial residual = 1, Final residual = 0.0216481, No Iterations 5
DILUPBiCGStab:  Solving for Uy:  solution singularity
DILUPBiCGStab:  Solving for Uz:  solution singularity
linear solve U 665183
[OGL LOG][Proc: 0]global_index_init : 29 mu s
[OGL LOG][Proc: 0]global_index_init : 1 mu s
[OGL LOG][Proc: 0]global_index_init : 1 mu s
[OGL LOG][Proc: 0]global_index_init : 1 mu s
[OGL LOG][Proc: 0]init_host_sparsity_pattern : 19709277 mu s
[OGL LOG][Proc: 0]update_host_matrix_data : 47243 mu s
[OGL LOG][Proc: 0]convert_coo_to_csr : 2629 mu s
[OGL LOG][Proc: 0]gather_initGuess : 32104 mu s
[OGL LOG][Proc: 0]gather_RHS : 25711 mu s
[OGL LOG][Proc: 0]gather_global_matrix : 4 mu s
[OGL LOG][Proc: 0]init_precond : 57 mu s
[OGL LOG][Proc: 0]generate_solver : 19 mu s
[OGL LOG][Proc: 0]solve : 5301108 mu s
[OGL LOG][Proc: 0]retrieve_result_from_device : 22761 mu s
nonecudaGKOBiCGStab:  Solving for p, Initial residual = 1, Final residual = 9.10863e-07, No Iterations 1799
linear solve p 27402172
time step continuity errors : sum local = 0.000132929, global = 3.6253e-19, cumulative = 3.6253e-19
[OGL LOG][Proc: 0]global_index_init : 11 mu s
[OGL LOG][Proc: 0]global_index_init : 1 mu s
[OGL LOG][Proc: 0]global_index_init : 2 mu s
[OGL LOG][Proc: 0]global_index_init : 1 mu s
[OGL LOG][Proc: 0]update_host_matrix_data : 34228 mu s
[OGL LOG][Proc: 0]gather_initGuess : 11 mu s
[OGL LOG][Proc: 0]gather_RHS : 28349 mu s
[OGL LOG][Proc: 0]gather_global_matrix : 0 mu s
read from registry
[OGL LOG][Proc: 0]init_precond : 20 mu s
[OGL LOG][Proc: 0]generate_solver : 1 mu s
[OGL LOG][Proc: 0]solve : 4302731 mu s
[OGL LOG][Proc: 0]retrieve_result_from_device : 25697 mu s
nonecudaGKOBiCGStab:  Solving for p, Initial residual = 0.895972, Final residual = 1.24598e-07, No Iterations 1562
linear solve p 4405474
time step continuity errors : sum local = 6.18717e-11, global = -3.28923e-21, cumulative = 3.59241e-19
ExecutionTime = 36.28 s  ClockTime = 37 s

Time = 0.001

Courant Number mean: 0.0392482 max: 0.865942
DILUPBiCGStab:  Solving for Ux, Initial residual = 0.119437, Final residual = 0.0142259, No Iterations 5
DILUPBiCGStab:  Solving for Uy, Initial residual = 0.510793, Final residual = 0.0562199, No Iterations 5
DILUPBiCGStab:  Solving for Uz, Initial residual = 0.894289, Final residual = 0.134854, No Iterations 5
linear solve U 1308347
[OGL LOG][Proc: 0]global_index_init : 89 mu s
[OGL LOG][Proc: 0]global_index_init : 1 mu s
[OGL LOG][Proc: 0]global_index_init : 3 mu s
[OGL LOG][Proc: 0]global_index_init : 1 mu s
[OGL LOG][Proc: 0]update_host_matrix_data : 35308 mu s
[OGL LOG][Proc: 0]gather_initGuess : 1 mu s
[OGL LOG][Proc: 0]gather_RHS : 28384 mu s
[OGL LOG][Proc: 0]gather_global_matrix : 0 mu s
read from registry
[OGL LOG][Proc: 0]init_precond : 9 mu s
[OGL LOG][Proc: 0]generate_solver : 1 mu s
[OGL LOG][Proc: 0]solve : 3680588 mu s
[OGL LOG][Proc: 0]retrieve_result_from_device : 23578 mu s
nonecudaGKOBiCGStab:  Solving for p, Initial residual = 0.966857, Final residual = 4.43384e-07, No Iterations 1333
linear solve p 3782937
time step continuity errors : sum local = 1.29158e-09, global = -3.19261e-21, cumulative = 3.56048e-19
[OGL LOG][Proc: 0]global_index_init : 33 mu s
[OGL LOG][Proc: 0]global_index_init : 1 mu s
[OGL LOG][Proc: 0]global_index_init : 3 mu s
[OGL LOG][Proc: 0]global_index_init : 1 mu s
[OGL LOG][Proc: 0]update_host_matrix_data : 34574 mu s
[OGL LOG][Proc: 0]gather_initGuess : 1 mu s
[OGL LOG][Proc: 0]gather_RHS : 28550 mu s
[OGL LOG][Proc: 0]gather_global_matrix : 0 mu s
read from registry
[OGL LOG][Proc: 0]init_precond : 9 mu s
[OGL LOG][Proc: 0]generate_solver : 1 mu s
[OGL LOG][Proc: 0]solve : 4016665 mu s
[OGL LOG][Proc: 0]retrieve_result_from_device : 22780 mu s
nonecudaGKOBiCGStab:  Solving for p, Initial residual = 0.905781, Final residual = 5.4901e-07, No Iterations 1458
linear solve p 4117047
time step continuity errors : sum local = 4.76599e-09, global = -6.77978e-21, cumulative = 3.49268e-19
ExecutionTime = 46.34 s  ClockTime = 48 s

Time = 0.0015

Courant Number mean: 0.0617752 max: 1.02195
DILUPBiCGStab:  Solving for Ux, Initial residual = 0.0719853, Final residual = 0.00605293, No Iterations 5
DILUPBiCGStab:  Solving for Uy, Initial residual = 0.376276, Final residual = 0.0241946, No Iterations 5
DILUPBiCGStab:  Solving for Uz, Initial residual = 0.862252, Final residual = 0.0715823, No Iterations 5
linear solve U 1306905
[OGL LOG][Proc: 0]global_index_init : 8 mu s
[OGL LOG][Proc: 0]global_index_init : 2 mu s
[OGL LOG][Proc: 0]global_index_init : 2 mu s
[OGL LOG][Proc: 0]global_index_init : 1 mu s
[OGL LOG][Proc: 0]update_host_matrix_data : 35820 mu s
[OGL LOG][Proc: 0]gather_initGuess : 1 mu s
[OGL LOG][Proc: 0]gather_RHS : 28359 mu s
[OGL LOG][Proc: 0]gather_global_matrix : 0 mu s
read from registry
[OGL LOG][Proc: 0]init_precond : 8 mu s
[OGL LOG][Proc: 0]generate_solver : 1 mu s
[OGL LOG][Proc: 0]solve : 4084822 mu s
[OGL LOG][Proc: 0]retrieve_result_from_device : 23143 mu s
nonecudaGKOBiCGStab:  Solving for p, Initial residual = 0.968652, Final residual = 4.06762e-07, No Iterations 1479
linear solve p 4186284
time step continuity errors : sum local = 7.14518e-10, global = 1.31522e-21, cumulative = 3.50584e-19
[OGL LOG][Proc: 0]global_index_init : 9 mu s
[OGL LOG][Proc: 0]global_index_init : 1 mu s
[OGL LOG][Proc: 0]global_index_init : 2 mu s
[OGL LOG][Proc: 0]global_index_init : 1 mu s
[OGL LOG][Proc: 0]update_host_matrix_data : 34567 mu s
[OGL LOG][Proc: 0]gather_initGuess : 3 mu s
[OGL LOG][Proc: 0]gather_RHS : 28727 mu s
[OGL LOG][Proc: 0]gather_global_matrix : 0 mu s
read from registry
[OGL LOG][Proc: 0]init_precond : 9 mu s
[OGL LOG][Proc: 0]generate_solver : 1 mu s
[OGL LOG][Proc: 0]solve : 4063571 mu s
[OGL LOG][Proc: 0]retrieve_result_from_device : 22659 mu s
nonecudaGKOBiCGStab:  Solving for p, Initial residual = 0.912872, Final residual = 2.49515e-07, No Iterations 1475
linear solve p 4164679
time step continuity errors : sum local = 7.5962e-10, global = -2.0878e-21, cumulative = 3.48496e-19
ExecutionTime = 56.85 s  ClockTime = 58 s

End

Finalising parallel run
================================================================================
hash: 40bc2aa573835c39340d609cced7e1a7
/*---------------------------------------------------------------------------*\
| =========                 |                                                 |
| \\      /  F ield         | OpenFOAM: The Open Source CFD Toolbox           |
|  \\    /   O peration     | Version:  2112                                  |
|   \\  /    A nd           | Website:  www.openfoam.com                      |
|    \\/     M anipulation  |                                                 |
\*---------------------------------------------------------------------------*/
Build  : d44c8318f0-20220111 OPENFOAM=2112 version=v2112
Arch   : "LSB;label=32;scalar=64"
Exec   : icoFoam -parallel
Date   : Jan 30 2022
Time   : 07:44:52
Host   : hkn0426.localdomain
PID    : 3623765
I/O    : uncollated
Case   : /hkfs/home/project/hk-project-test-fine/eq4036/data/code/ogl_labbook/lidDrivenCavity/resolution/Variation_mesh/200/Variation_matrix_solver/CG_NoPrecond_CUDA/Variation_mpiRank/8/base
nProcs : 8
Hosts  :
(
    (hkn0426.localdomain 8)
)
Pstream initialized with:
    floatTransfer      : 0
    nProcsSimpleSum    : 0
    commsType          : nonBlocking
    polling iterations : 0
trapFpe: Floating point exception trapping enabled (FOAM_SIGFPE).
fileModificationChecking : Monitoring run-time modified files using timeStampMaster (fileModificationSkew 5, maxFileModificationPolls 20)
allowSystemOperations : Allowing user-supplied system call operations

// * * * * * * * * * * * * * * * * * * * * * * * * * * * * * * * * * * * * * //
Create time

Create mesh for time = 0


PISO: Operating solver in PISO mode

Reading transportProperties

Reading field p

Reading field U

Reading/calculating face flux field phi


Starting time loop

Time = 0.0005

Courant Number mean: 0 max: 0
DILUPBiCGStab:  Solving for Ux, Initial residual = 1, Final residual = 0.0216481, No Iterations 5
DILUPBiCGStab:  Solving for Uy:  solution singularity
DILUPBiCGStab:  Solving for Uz:  solution singularity
linear solve U 656796
[OGL LOG][Proc: 0]global_index_init : 30967 mu s
[OGL LOG][Proc: 0]global_index_init : 3 mu s
[OGL LOG][Proc: 0]global_index_init : 2 mu s
[OGL LOG][Proc: 0]global_index_init : 2 mu s
[OGL LOG][Proc: 0]init_host_sparsity_pattern : 19698934 mu s
[OGL LOG][Proc: 0]update_host_matrix_data : 47555 mu s
[OGL LOG][Proc: 0]convert_coo_to_csr : 2573 mu s
[OGL LOG][Proc: 0]gather_initGuess : 31842 mu s
[OGL LOG][Proc: 0]gather_RHS : 25058 mu s
[OGL LOG][Proc: 0]gather_global_matrix : 0 mu s
[OGL LOG][Proc: 0]init_precond : 55 mu s
[OGL LOG][Proc: 0]generate_solver : 18 mu s
[OGL LOG][Proc: 0]solve : 2788229 mu s
[OGL LOG][Proc: 0]retrieve_result_from_device : 25011 mu s
nonecudaGKOCG:  Solving for p, Initial residual = 1, Final residual = 9.90089e-07, No Iterations 1749
linear solve p 24714289
time step continuity errors : sum local = 1.87366e-10, global = -6.54489e-21, cumulative = -6.54489e-21
[OGL LOG][Proc: 0]global_index_init : 112 mu s
[OGL LOG][Proc: 0]global_index_init : 2 mu s
[OGL LOG][Proc: 0]global_index_init : 2 mu s
[OGL LOG][Proc: 0]global_index_init : 1 mu s
[OGL LOG][Proc: 0]update_host_matrix_data : 34538 mu s
[OGL LOG][Proc: 0]gather_initGuess : 7 mu s
[OGL LOG][Proc: 0]gather_RHS : 27955 mu s
[OGL LOG][Proc: 0]gather_global_matrix : 0 mu s
read from registry
[OGL LOG][Proc: 0]init_precond : 19 mu s
[OGL LOG][Proc: 0]generate_solver : 1 mu s
[OGL LOG][Proc: 0]solve : 2682294 mu s
[OGL LOG][Proc: 0]retrieve_result_from_device : 24114 mu s
nonecudaGKOCG:  Solving for p, Initial residual = 0.81518, Final residual = 2.0946e-07, No Iterations 1795
linear solve p 2783047
time step continuity errors : sum local = 4.81476e-11, global = -4.0363e-21, cumulative = -1.05812e-20
ExecutionTime = 32.02 s  ClockTime = 33 s

Time = 0.001

Courant Number mean: 0.0392461 max: 0.865942
DILUPBiCGStab:  Solving for Ux, Initial residual = 0.117616, Final residual = 0.0131468, No Iterations 5
DILUPBiCGStab:  Solving for Uy, Initial residual = 0.506037, Final residual = 0.0494692, No Iterations 5
DILUPBiCGStab:  Solving for Uz, Initial residual = 0.96068, Final residual = 0.101188, No Iterations 5
linear solve U 1301399
[OGL LOG][Proc: 0]global_index_init : 190 mu s
[OGL LOG][Proc: 0]global_index_init : 1 mu s
[OGL LOG][Proc: 0]global_index_init : 2 mu s
[OGL LOG][Proc: 0]global_index_init : 1 mu s
[OGL LOG][Proc: 0]update_host_matrix_data : 34593 mu s
[OGL LOG][Proc: 0]gather_initGuess : 1 mu s
[OGL LOG][Proc: 0]gather_RHS : 28213 mu s
[OGL LOG][Proc: 0]gather_global_matrix : 0 mu s
read from registry
[OGL LOG][Proc: 0]init_precond : 8 mu s
[OGL LOG][Proc: 0]generate_solver : 2 mu s
[OGL LOG][Proc: 0]solve : 2656463 mu s
[OGL LOG][Proc: 0]retrieve_result_from_device : 24717 mu s
nonecudaGKOCG:  Solving for p, Initial residual = 0.897316, Final residual = 2.23822e-07, No Iterations 1776
linear solve p 2759188
time step continuity errors : sum local = 1.14146e-10, global = -1.3463e-22, cumulative = -1.07158e-20
[OGL LOG][Proc: 0]global_index_init : 14 mu s
[OGL LOG][Proc: 0]global_index_init : 1 mu s
[OGL LOG][Proc: 0]global_index_init : 2 mu s
[OGL LOG][Proc: 0]global_index_init : 1 mu s
[OGL LOG][Proc: 0]update_host_matrix_data : 34751 mu s
[OGL LOG][Proc: 0]gather_initGuess : 1 mu s
[OGL LOG][Proc: 0]gather_RHS : 27864 mu s
[OGL LOG][Proc: 0]gather_global_matrix : 0 mu s
read from registry
[OGL LOG][Proc: 0]init_precond : 8 mu s
[OGL LOG][Proc: 0]generate_solver : 1 mu s
[OGL LOG][Proc: 0]solve : 2653714 mu s
[OGL LOG][Proc: 0]retrieve_result_from_device : 24476 mu s
nonecudaGKOCG:  Solving for p, Initial residual = 0.846842, Final residual = 2.08966e-07, No Iterations 1776
linear solve p 2754895
time step continuity errors : sum local = 1.08693e-10, global = -7.8449e-22, cumulative = -1.15003e-20
ExecutionTime = 39.7 s  ClockTime = 41 s

Time = 0.0015

Courant Number mean: 0.0615403 max: 1.02143
DILUPBiCGStab:  Solving for Ux, Initial residual = 0.0685124, Final residual = 0.00554306, No Iterations 5
DILUPBiCGStab:  Solving for Uy, Initial residual = 0.357897, Final residual = 0.0211478, No Iterations 5
DILUPBiCGStab:  Solving for Uz, Initial residual = 0.820139, Final residual = 0.0702935, No Iterations 5
linear solve U 1299402
[OGL LOG][Proc: 0]global_index_init : 110 mu s
[OGL LOG][Proc: 0]global_index_init : 1 mu s
[OGL LOG][Proc: 0]global_index_init : 2 mu s
[OGL LOG][Proc: 0]global_index_init : 1 mu s
[OGL LOG][Proc: 0]update_host_matrix_data : 34339 mu s
[OGL LOG][Proc: 0]gather_initGuess : 1 mu s
[OGL LOG][Proc: 0]gather_RHS : 27868 mu s
[OGL LOG][Proc: 0]gather_global_matrix : 0 mu s
read from registry
[OGL LOG][Proc: 0]init_precond : 8 mu s
[OGL LOG][Proc: 0]generate_solver : 1 mu s
[OGL LOG][Proc: 0]solve : 2657153 mu s
[OGL LOG][Proc: 0]retrieve_result_from_device : 24420 mu s
nonecudaGKOCG:  Solving for p, Initial residual = 0.937568, Final residual = 1.92201e-07, No Iterations 1776
linear solve p 2757771
time step continuity errors : sum local = 1.27516e-10, global = 1.01821e-21, cumulative = -1.04821e-20
[OGL LOG][Proc: 0]global_index_init : 58 mu s
[OGL LOG][Proc: 0]global_index_init : 1 mu s
[OGL LOG][Proc: 0]global_index_init : 2 mu s
[OGL LOG][Proc: 0]global_index_init : 2 mu s
[OGL LOG][Proc: 0]update_host_matrix_data : 34596 mu s
[OGL LOG][Proc: 0]gather_initGuess : 1 mu s
[OGL LOG][Proc: 0]gather_RHS : 28243 mu s
[OGL LOG][Proc: 0]gather_global_matrix : 0 mu s
read from registry
[OGL LOG][Proc: 0]init_precond : 9 mu s
[OGL LOG][Proc: 0]generate_solver : 1 mu s
[OGL LOG][Proc: 0]solve : 2653248 mu s
[OGL LOG][Proc: 0]retrieve_result_from_device : 24536 mu s
nonecudaGKOCG:  Solving for p, Initial residual = 0.905008, Final residual = 1.85504e-07, No Iterations 1776
linear solve p 2754586
time step continuity errors : sum local = 1.22095e-10, global = 2.30357e-21, cumulative = -8.17853e-21
ExecutionTime = 47.37 s  ClockTime = 48 s

End

Finalising parallel run
================================================================================
hash: e31b16c8ec2fe6f4ed3bfb80207c2d39
/*---------------------------------------------------------------------------*\
| =========                 |                                                 |
| \\      /  F ield         | OpenFOAM: The Open Source CFD Toolbox           |
|  \\    /   O peration     | Version:  2112                                  |
|   \\  /    A nd           | Website:  www.openfoam.com                      |
|    \\/     M anipulation  |                                                 |
\*---------------------------------------------------------------------------*/
Build  : d44c8318f0-20220111 OPENFOAM=2112 version=v2112
Arch   : "LSB;label=32;scalar=64"
Exec   : icoFoam -parallel
Date   : Jan 30 2022
Time   : 07:44:00
Host   : hkn0719.localdomain
PID    : 992840
I/O    : uncollated
Case   : /hkfs/home/project/hk-project-test-fine/eq4036/data/code/ogl_labbook/lidDrivenCavity/resolution/Variation_mesh/300/Variation_matrix_solver/BiCGStab_NoPrecond_CUDA/Variation_mpiRank/8/base
nProcs : 8
Hosts  :
(
    (hkn0719.localdomain 8)
)
Pstream initialized with:
    floatTransfer      : 0
    nProcsSimpleSum    : 0
    commsType          : nonBlocking
    polling iterations : 0
trapFpe: Floating point exception trapping enabled (FOAM_SIGFPE).
fileModificationChecking : Monitoring run-time modified files using timeStampMaster (fileModificationSkew 5, maxFileModificationPolls 20)
allowSystemOperations : Allowing user-supplied system call operations

// * * * * * * * * * * * * * * * * * * * * * * * * * * * * * * * * * * * * * //
Create time

Create mesh for time = 0


PISO: Operating solver in PISO mode

Reading transportProperties

Reading field p

Reading field U

Reading/calculating face flux field phi


Starting time loop

Time = 0.000333333

Courant Number mean: 0 max: 0
DILUPBiCGStab:  Solving for Ux, Initial residual = 1, Final residual = 0.0285744, No Iterations 5
DILUPBiCGStab:  Solving for Uy:  solution singularity
DILUPBiCGStab:  Solving for Uz:  solution singularity
linear solve U 2300657
[OGL LOG][Proc: 0]global_index_init : 33 mu s
[OGL LOG][Proc: 0]global_index_init : 2 mu s
[OGL LOG][Proc: 0]global_index_init : 1 mu s
[OGL LOG][Proc: 0]global_index_init : 1 mu s
[OGL LOG][Proc: 0]init_host_sparsity_pattern : 122732855 mu s
[OGL LOG][Proc: 0]update_host_matrix_data : 171707 mu s
[OGL LOG][Proc: 0]convert_coo_to_csr : 7837 mu s
[OGL LOG][Proc: 0]gather_initGuess : 110403 mu s
[OGL LOG][Proc: 0]gather_RHS : 93806 mu s
[OGL LOG][Proc: 0]gather_global_matrix : 6 mu s
[OGL LOG][Proc: 0]init_precond : 77 mu s
[OGL LOG][Proc: 0]generate_solver : 18 mu s
[OGL LOG][Proc: 0]solve : 20034594 mu s
[OGL LOG][Proc: 0]retrieve_result_from_device : 78092 mu s
nonecudaGKOBiCGStab:  Solving for p, Initial residual = 1, Final residual = 8.23174e-07, No Iterations 2177
linear solve p 178374928
time step continuity errors : sum local = 0.000451115, global = -4.74564e-18, cumulative = -4.74564e-18
[OGL LOG][Proc: 0]global_index_init : 12 mu s
[OGL LOG][Proc: 0]global_index_init : 2 mu s
[OGL LOG][Proc: 0]global_index_init : 2 mu s
[OGL LOG][Proc: 0]global_index_init : 1 mu s
[OGL LOG][Proc: 0]update_host_matrix_data : 133283 mu s
[OGL LOG][Proc: 0]gather_initGuess : 11 mu s
[OGL LOG][Proc: 0]gather_RHS : 95040 mu s
[OGL LOG][Proc: 0]gather_global_matrix : 0 mu s
read from registry
[OGL LOG][Proc: 0]init_precond : 21 mu s
[OGL LOG][Proc: 0]generate_solver : 1 mu s
[OGL LOG][Proc: 0]solve : 18379622 mu s
[OGL LOG][Proc: 0]retrieve_result_from_device : 79948 mu s
nonecudaGKOBiCGStab:  Solving for p, Initial residual = 0.97113, Final residual = 2.41895e-07, No Iterations 2088
linear solve p 18736158
time step continuity errors : sum local = 2.94366e-10, global = -1.40328e-21, cumulative = -4.74705e-18
ExecutionTime = 214.01 s  ClockTime = 215 s

Time = 0.000666667

Courant Number mean: 0.0305583 max: 0.890858
DILUPBiCGStab:  Solving for Ux, Initial residual = 0.113588, Final residual = 0.0224489, No Iterations 5
DILUPBiCGStab:  Solving for Uy, Initial residual = 0.566847, Final residual = 0.114647, No Iterations 5
DILUPBiCGStab:  Solving for Uz, Initial residual = 0.882463, Final residual = 0.179617, No Iterations 5
linear solve U 4660547
[OGL LOG][Proc: 0]global_index_init : 11 mu s
[OGL LOG][Proc: 0]global_index_init : 1 mu s
[OGL LOG][Proc: 0]global_index_init : 2 mu s
[OGL LOG][Proc: 0]global_index_init : 1 mu s
[OGL LOG][Proc: 0]update_host_matrix_data : 143661 mu s
[OGL LOG][Proc: 0]gather_initGuess : 2 mu s
[OGL LOG][Proc: 0]gather_RHS : 95029 mu s
[OGL LOG][Proc: 0]gather_global_matrix : 0 mu s
read from registry
[OGL LOG][Proc: 0]init_precond : 12 mu s
[OGL LOG][Proc: 0]generate_solver : 1 mu s
[OGL LOG][Proc: 0]solve : 20091015 mu s
[OGL LOG][Proc: 0]retrieve_result_from_device : 81062 mu s
nonecudaGKOBiCGStab:  Solving for p, Initial residual = 0.991595, Final residual = 9.76518e-08, No Iterations 2283
linear solve p 20462867
time step continuity errors : sum local = 7.65605e-07, global = -2.67345e-21, cumulative = -4.74972e-18
[OGL LOG][Proc: 0]global_index_init : 11 mu s
[OGL LOG][Proc: 0]global_index_init : 2 mu s
[OGL LOG][Proc: 0]global_index_init : 1 mu s
[OGL LOG][Proc: 0]global_index_init : 1 mu s
[OGL LOG][Proc: 0]update_host_matrix_data : 128589 mu s
[OGL LOG][Proc: 0]gather_initGuess : 5 mu s
[OGL LOG][Proc: 0]gather_RHS : 94710 mu s
[OGL LOG][Proc: 0]gather_global_matrix : 0 mu s
read from registry
[OGL LOG][Proc: 0]init_precond : 10 mu s
[OGL LOG][Proc: 0]generate_solver : 1 mu s
[OGL LOG][Proc: 0]solve : 21620659 mu s
[OGL LOG][Proc: 0]retrieve_result_from_device : 80838 mu s
nonecudaGKOBiCGStab:  Solving for p, Initial residual = 0.932467, Final residual = 1.83722e-07, No Iterations 2457
linear solve p 21977897
time step continuity errors : sum local = 8.69073e-10, global = -1.55724e-21, cumulative = -4.75128e-18
ExecutionTime = 264.38 s  ClockTime = 266 s

Time = 0.001

Courant Number mean: 0.0515365 max: 1.07619
DILUPBiCGStab:  Solving for Ux, Initial residual = 0.0885027, Final residual = 0.0126474, No Iterations 5
DILUPBiCGStab:  Solving for Uy, Initial residual = 0.513605, Final residual = 0.0606775, No Iterations 5
DILUPBiCGStab:  Solving for Uz, Initial residual = 0.872809, Final residual = 0.0984153, No Iterations 5
linear solve U 4662914
[OGL LOG][Proc: 0]global_index_init : 11 mu s
[OGL LOG][Proc: 0]global_index_init : 1 mu s
[OGL LOG][Proc: 0]global_index_init : 2 mu s
[OGL LOG][Proc: 0]global_index_init : 1 mu s
[OGL LOG][Proc: 0]update_host_matrix_data : 143215 mu s
[OGL LOG][Proc: 0]gather_initGuess : 2 mu s
[OGL LOG][Proc: 0]gather_RHS : 98415 mu s
[OGL LOG][Proc: 0]gather_global_matrix : 0 mu s
read from registry
[OGL LOG][Proc: 0]init_precond : 11 mu s
[OGL LOG][Proc: 0]generate_solver : 2 mu s
[OGL LOG][Proc: 0]solve : 31906960 mu s
[OGL LOG][Proc: 0]retrieve_result_from_device : 80613 mu s
nonecudaGKOBiCGStab:  Solving for p, Initial residual = 0.98979, Final residual = 6.29904e-07, No Iterations 3626
linear solve p 32288966
time step continuity errors : sum local = 2.72437e-09, global = -2.00646e-21, cumulative = -4.75328e-18
[OGL LOG][Proc: 0]global_index_init : 12 mu s
[OGL LOG][Proc: 0]global_index_init : 2 mu s
[OGL LOG][Proc: 0]global_index_init : 2 mu s
[OGL LOG][Proc: 0]global_index_init : 1 mu s
[OGL LOG][Proc: 0]update_host_matrix_data : 127702 mu s
[OGL LOG][Proc: 0]gather_initGuess : 5 mu s
[OGL LOG][Proc: 0]gather_RHS : 98752 mu s
[OGL LOG][Proc: 0]gather_global_matrix : 0 mu s
read from registry
[OGL LOG][Proc: 0]init_precond : 10 mu s
[OGL LOG][Proc: 0]generate_solver : 1 mu s
[OGL LOG][Proc: 0]solve : 21051468 mu s
[OGL LOG][Proc: 0]retrieve_result_from_device : 79498 mu s
nonecudaGKOBiCGStab:  Solving for p, Initial residual = 0.929018, Final residual = 1.29384e-07, No Iterations 2393
linear solve p 21404801
time step continuity errors : sum local = 2.03952e-06, global = -2.73521e-20, cumulative = -4.78064e-18
ExecutionTime = 326 s  ClockTime = 327 s

End

Finalising parallel run
================================================================================
hash: 52b3575c5d86a35ea5b99ffa93080588
/*---------------------------------------------------------------------------*\
| =========                 |                                                 |
| \\      /  F ield         | OpenFOAM: The Open Source CFD Toolbox           |
|  \\    /   O peration     | Version:  2112                                  |
|   \\  /    A nd           | Website:  www.openfoam.com                      |
|    \\/     M anipulation  |                                                 |
\*---------------------------------------------------------------------------*/
Build  : d44c8318f0-20220111 OPENFOAM=2112 version=v2112
Arch   : "LSB;label=32;scalar=64"
Exec   : icoFoam -parallel
Date   : Jan 30 2022
Time   : 07:49:29
Host   : hkn0719.localdomain
PID    : 993596
I/O    : uncollated
Case   : /hkfs/home/project/hk-project-test-fine/eq4036/data/code/ogl_labbook/lidDrivenCavity/resolution/Variation_mesh/300/Variation_matrix_solver/CG_NoPrecond_CUDA/Variation_mpiRank/8/base
nProcs : 8
Hosts  :
(
    (hkn0719.localdomain 8)
)
Pstream initialized with:
    floatTransfer      : 0
    nProcsSimpleSum    : 0
    commsType          : nonBlocking
    polling iterations : 0
trapFpe: Floating point exception trapping enabled (FOAM_SIGFPE).
fileModificationChecking : Monitoring run-time modified files using timeStampMaster (fileModificationSkew 5, maxFileModificationPolls 20)
allowSystemOperations : Allowing user-supplied system call operations

// * * * * * * * * * * * * * * * * * * * * * * * * * * * * * * * * * * * * * //
Create time

Create mesh for time = 0


PISO: Operating solver in PISO mode

Reading transportProperties

Reading field p

Reading field U

Reading/calculating face flux field phi


Starting time loop

Time = 0.000333333

Courant Number mean: 0 max: 0
DILUPBiCGStab:  Solving for Ux, Initial residual = 1, Final residual = 0.0285744, No Iterations 5
DILUPBiCGStab:  Solving for Uy:  solution singularity
DILUPBiCGStab:  Solving for Uz:  solution singularity
linear solve U 2297695
[OGL LOG][Proc: 0]global_index_init : 16913 mu s
[OGL LOG][Proc: 0]global_index_init : 2 mu s
[OGL LOG][Proc: 0]global_index_init : 1 mu s
[OGL LOG][Proc: 0]global_index_init : 1 mu s
[OGL LOG][Proc: 0]init_host_sparsity_pattern : 122664492 mu s
[OGL LOG][Proc: 0]update_host_matrix_data : 173133 mu s
[OGL LOG][Proc: 0]convert_coo_to_csr : 7029 mu s
[OGL LOG][Proc: 0]gather_initGuess : 106969 mu s
[OGL LOG][Proc: 0]gather_RHS : 93431 mu s
[OGL LOG][Proc: 0]gather_global_matrix : 0 mu s
[OGL LOG][Proc: 0]init_precond : 57 mu s
[OGL LOG][Proc: 0]generate_solver : 17 mu s
[OGL LOG][Proc: 0]solve : 13202213 mu s
[OGL LOG][Proc: 0]retrieve_result_from_device : 79032 mu s
nonecudaGKOCG:  Solving for p, Initial residual = 1, Final residual = 9.82416e-07, No Iterations 2637
linear solve p 171225637
time step continuity errors : sum local = 9.27754e-11, global = 3.51101e-21, cumulative = 3.51101e-21
[OGL LOG][Proc: 0]global_index_init : 13 mu s
[OGL LOG][Proc: 0]global_index_init : 2 mu s
[OGL LOG][Proc: 0]global_index_init : 3 mu s
[OGL LOG][Proc: 0]global_index_init : 1 mu s
[OGL LOG][Proc: 0]update_host_matrix_data : 133284 mu s
[OGL LOG][Proc: 0]gather_initGuess : 9 mu s
[OGL LOG][Proc: 0]gather_RHS : 94688 mu s
[OGL LOG][Proc: 0]gather_global_matrix : 0 mu s
read from registry
[OGL LOG][Proc: 0]init_precond : 21 mu s
[OGL LOG][Proc: 0]generate_solver : 1 mu s
[OGL LOG][Proc: 0]solve : 12601923 mu s
[OGL LOG][Proc: 0]retrieve_result_from_device : 79097 mu s
nonecudaGKOCG:  Solving for p, Initial residual = 0.827887, Final residual = 9.70036e-07, No Iterations 2626
linear solve p 12965591
time step continuity errors : sum local = 1.09913e-10, global = -3.78052e-23, cumulative = 3.4732e-21
ExecutionTime = 201.22 s  ClockTime = 202 s

Time = 0.000666667

Courant Number mean: 0.0305465 max: 0.890858
DILUPBiCGStab:  Solving for Ux, Initial residual = 0.106029, Final residual = 0.0187003, No Iterations 5
DILUPBiCGStab:  Solving for Uy, Initial residual = 0.546324, Final residual = 0.0883789, No Iterations 5
DILUPBiCGStab:  Solving for Uz, Initial residual = 0.963977, Final residual = 0.176992, No Iterations 5
linear solve U 4656144
[OGL LOG][Proc: 0]global_index_init : 10 mu s
[OGL LOG][Proc: 0]global_index_init : 1 mu s
[OGL LOG][Proc: 0]global_index_init : 2 mu s
[OGL LOG][Proc: 0]global_index_init : 1 mu s
[OGL LOG][Proc: 0]update_host_matrix_data : 142779 mu s
[OGL LOG][Proc: 0]gather_initGuess : 3 mu s
[OGL LOG][Proc: 0]gather_RHS : 94761 mu s
[OGL LOG][Proc: 0]gather_global_matrix : 0 mu s
read from registry
[OGL LOG][Proc: 0]init_precond : 12 mu s
[OGL LOG][Proc: 0]generate_solver : 3 mu s
[OGL LOG][Proc: 0]solve : 12606861 mu s
[OGL LOG][Proc: 0]retrieve_result_from_device : 79346 mu s
nonecudaGKOCG:  Solving for p, Initial residual = 0.926023, Final residual = 4.85053e-07, No Iterations 2626
linear solve p 12974285
time step continuity errors : sum local = 1.5363e-10, global = 4.19871e-22, cumulative = 3.89307e-21
[OGL LOG][Proc: 0]global_index_init : 10 mu s
[OGL LOG][Proc: 0]global_index_init : 1 mu s
[OGL LOG][Proc: 0]global_index_init : 2 mu s
[OGL LOG][Proc: 0]global_index_init : 1 mu s
[OGL LOG][Proc: 0]update_host_matrix_data : 129843 mu s
[OGL LOG][Proc: 0]gather_initGuess : 1 mu s
[OGL LOG][Proc: 0]gather_RHS : 94450 mu s
[OGL LOG][Proc: 0]gather_global_matrix : 0 mu s
read from registry
[OGL LOG][Proc: 0]init_precond : 9 mu s
[OGL LOG][Proc: 0]generate_solver : 1 mu s
[OGL LOG][Proc: 0]solve : 12601673 mu s
[OGL LOG][Proc: 0]retrieve_result_from_device : 80414 mu s
nonecudaGKOCG:  Solving for p, Initial residual = 0.879205, Final residual = 4.43186e-07, No Iterations 2626
linear solve p 12953456
time step continuity errors : sum local = 1.43158e-10, global = -4.94113e-22, cumulative = 3.39896e-21
ExecutionTime = 235.08 s  ClockTime = 236 s

Time = 0.001

Courant Number mean: 0.0488089 max: 1.07263
DILUPBiCGStab:  Solving for Ux, Initial residual = 0.0665545, Final residual = 0.00905679, No Iterations 5
DILUPBiCGStab:  Solving for Uy, Initial residual = 0.417099, Final residual = 0.0410158, No Iterations 5
DILUPBiCGStab:  Solving for Uz, Initial residual = 0.846608, Final residual = 0.12139, No Iterations 5
linear solve U 4652795
[OGL LOG][Proc: 0]global_index_init : 9 mu s
[OGL LOG][Proc: 0]global_index_init : 1 mu s
[OGL LOG][Proc: 0]global_index_init : 2 mu s
[OGL LOG][Proc: 0]global_index_init : 1 mu s
[OGL LOG][Proc: 0]update_host_matrix_data : 142775 mu s
[OGL LOG][Proc: 0]gather_initGuess : 1 mu s
[OGL LOG][Proc: 0]gather_RHS : 94833 mu s
[OGL LOG][Proc: 0]gather_global_matrix : 0 mu s
read from registry
[OGL LOG][Proc: 0]init_precond : 9 mu s
[OGL LOG][Proc: 0]generate_solver : 2 mu s
[OGL LOG][Proc: 0]solve : 12608150 mu s
[OGL LOG][Proc: 0]retrieve_result_from_device : 79612 mu s
nonecudaGKOCG:  Solving for p, Initial residual = 0.960855, Final residual = 5.50002e-07, No Iterations 2626
linear solve p 12978514
time step continuity errors : sum local = 2.67744e-10, global = -1.0441e-21, cumulative = 2.35486e-21
[OGL LOG][Proc: 0]global_index_init : 10 mu s
[OGL LOG][Proc: 0]global_index_init : 2 mu s
[OGL LOG][Proc: 0]global_index_init : 1 mu s
[OGL LOG][Proc: 0]global_index_init : 1 mu s
[OGL LOG][Proc: 0]update_host_matrix_data : 127771 mu s
[OGL LOG][Proc: 0]gather_initGuess : 4 mu s
[OGL LOG][Proc: 0]gather_RHS : 94790 mu s
[OGL LOG][Proc: 0]gather_global_matrix : 1 mu s
read from registry
[OGL LOG][Proc: 0]init_precond : 11 mu s
[OGL LOG][Proc: 0]generate_solver : 1 mu s
[OGL LOG][Proc: 0]solve : 12603247 mu s
[OGL LOG][Proc: 0]retrieve_result_from_device : 78568 mu s
nonecudaGKOCG:  Solving for p, Initial residual = 0.925757, Final residual = 5.24177e-07, No Iterations 2626
linear solve p 12952115
time step continuity errors : sum local = 2.55101e-10, global = -1.42137e-21, cumulative = 9.3349e-22
ExecutionTime = 268.96 s  ClockTime = 270 s

End

Finalising parallel run
================================================================================
