hash: 28b0900a065e9438ad0bd32731ed8fd6
/*---------------------------------------------------------------------------*\
| =========                 |                                                 |
| \\      /  F ield         | OpenFOAM: The Open Source CFD Toolbox           |
|  \\    /   O peration     | Version:  2112                                  |
|   \\  /    A nd           | Website:  www.openfoam.com                      |
|    \\/     M anipulation  |                                                 |
\*---------------------------------------------------------------------------*/
Build  : d44c8318f0-20220111 OPENFOAM=2112 version=v2112
Arch   : "LSB;label=32;scalar=64"
Exec   : icoFoam -parallel
Date   : Jan 28 2022
Time   : 22:37:12
Host   : hkn0621.localdomain
PID    : 214991
I/O    : uncollated
Case   : /hkfs/home/project/hk-project-test-fine/eq4036/data/code/ogl_labbook/lidDrivenCavity/resolution/Variation_mesh/100/Variation_matrix_solver/CG_ISAI_CUDA/Variation_mpiRank/38/base
nProcs : 38
Hosts  :
(
    (hkn0621.localdomain 38)
)
Pstream initialized with:
    floatTransfer      : 0
    nProcsSimpleSum    : 0
    commsType          : nonBlocking
    polling iterations : 0
trapFpe: Floating point exception trapping enabled (FOAM_SIGFPE).
fileModificationChecking : Monitoring run-time modified files using timeStampMaster (fileModificationSkew 5, maxFileModificationPolls 20)
allowSystemOperations : Allowing user-supplied system call operations

// * * * * * * * * * * * * * * * * * * * * * * * * * * * * * * * * * * * * * //
Create time

Create mesh for time = 0


PISO: Operating solver in PISO mode

Reading transportProperties

Reading field p

Reading field U

Reading/calculating face flux field phi


Starting time loop

Time = 0.001

Courant Number mean: 0 max: 0
DILUPBiCGStab:  Solving for Ux, Initial residual = 1, Final residual = 0.0113126, No Iterations 5
DILUPBiCGStab:  Solving for Uy:  solution singularity
DILUPBiCGStab:  Solving for Uz:  solution singularity
[OGL LOG][Proc: 0]global_index_init : 83119 mu s
[OGL LOG][Proc: 0]global_index_init : 14 mu s
[OGL LOG][Proc: 0]global_index_init : 16 mu s
[OGL LOG][Proc: 0]global_index_init : 17 mu s
[OGL LOG][Proc: 0]init_host_sparsity_pattern : 93008 mu s
[OGL LOG][Proc: 0]update_host_matrix_data : 939 mu s
[OGL LOG][Proc: 0]convert_coo_to_csr : 4936 mu s
[OGL LOG][Proc: 0]gather_initGuess : 3912 mu s
[OGL LOG][Proc: 0]gather_RHS : 2268 mu s
[OGL LOG][Proc: 0]gather_global_matrix : 0 mu s
[OGL LOG][Proc: 0]init_precond : 82694 mu s
[OGL LOG][Proc: 0]generate_solver : 13 mu s
[OGL LOG][Proc: 0]solve : 243686 mu s
[OGL LOG][Proc: 0]retrieve_result_from_device : 2577 mu s
ISAIcudaGKOCG:  Solving for p, Initial residual = 1, Final residual = 9.83879e-07, No Iterations 606
time step continuity errors : sum local = 5.82258e-10, global = -2.94476e-21, cumulative = -2.94476e-21
[OGL LOG][Proc: 0]global_index_init : 162 mu s
[OGL LOG][Proc: 0]global_index_init : 9 mu s
[OGL LOG][Proc: 0]global_index_init : 14 mu s
[OGL LOG][Proc: 0]global_index_init : 10 mu s
[OGL LOG][Proc: 0]update_host_matrix_data : 887 mu s
[OGL LOG][Proc: 0]gather_initGuess : 5 mu s
[OGL LOG][Proc: 0]gather_RHS : 3765 mu s
[OGL LOG][Proc: 0]gather_global_matrix : 0 mu s
read from registry
[OGL LOG][Proc: 0]init_precond : 16 mu s
[OGL LOG][Proc: 0]generate_solver : 0 mu s
[OGL LOG][Proc: 0]solve : 202746 mu s
[OGL LOG][Proc: 0]retrieve_result_from_device : 3414 mu s
ISAIcudaGKOCG:  Solving for p, Initial residual = 0.777482, Final residual = 9.86435e-07, No Iterations 601
time step continuity errors : sum local = 7.34593e-10, global = -1.73846e-20, cumulative = -2.03294e-20
ExecutionTime = 4.77 s  ClockTime = 9 s

Time = 0.002

Courant Number mean: 0.0552338 max: 0.807703
DILUPBiCGStab:  Solving for Ux, Initial residual = 0.137184, Final residual = 0.00605911, No Iterations 5
DILUPBiCGStab:  Solving for Uy, Initial residual = 0.431634, Final residual = 0.017243, No Iterations 5
DILUPBiCGStab:  Solving for Uz, Initial residual = 0.955192, Final residual = 0.0356001, No Iterations 5
[OGL LOG][Proc: 0]global_index_init : 47 mu s
[OGL LOG][Proc: 0]global_index_init : 7 mu s
[OGL LOG][Proc: 0]global_index_init : 10 mu s
[OGL LOG][Proc: 0]global_index_init : 10 mu s
[OGL LOG][Proc: 0]update_host_matrix_data : 1068 mu s
[OGL LOG][Proc: 0]gather_initGuess : 1 mu s
[OGL LOG][Proc: 0]gather_RHS : 3352 mu s
[OGL LOG][Proc: 0]gather_global_matrix : 0 mu s
read from registry
[OGL LOG][Proc: 0]init_precond : 7 mu s
[OGL LOG][Proc: 0]generate_solver : 1 mu s
[OGL LOG][Proc: 0]solve : 211532 mu s
[OGL LOG][Proc: 0]retrieve_result_from_device : 2947 mu s
ISAIcudaGKOCG:  Solving for p, Initial residual = 0.818388, Final residual = 2.40371e-07, No Iterations 625
time step continuity errors : sum local = 2.71156e-10, global = -8.76384e-21, cumulative = -2.90932e-20
[OGL LOG][Proc: 0]global_index_init : 25 mu s
[OGL LOG][Proc: 0]global_index_init : 7 mu s
[OGL LOG][Proc: 0]global_index_init : 12 mu s
[OGL LOG][Proc: 0]global_index_init : 16 mu s
[OGL LOG][Proc: 0]update_host_matrix_data : 1068 mu s
[OGL LOG][Proc: 0]gather_initGuess : 1 mu s
[OGL LOG][Proc: 0]gather_RHS : 3353 mu s
[OGL LOG][Proc: 0]gather_global_matrix : 0 mu s
read from registry
[OGL LOG][Proc: 0]init_precond : 7 mu s
[OGL LOG][Proc: 0]generate_solver : 1 mu s
[OGL LOG][Proc: 0]solve : 212326 mu s
[OGL LOG][Proc: 0]retrieve_result_from_device : 2506 mu s
ISAIcudaGKOCG:  Solving for p, Initial residual = 0.75826, Final residual = 2.18413e-07, No Iterations 626
time step continuity errors : sum local = 2.51718e-10, global = -9.90091e-21, cumulative = -3.89942e-20
ExecutionTime = 5.26 s  ClockTime = 9 s

Time = 0.003

Courant Number mean: 0.0841485 max: 0.943746
DILUPBiCGStab:  Solving for Ux, Initial residual = 0.0644957, Final residual = 0.00215472, No Iterations 5
DILUPBiCGStab:  Solving for Uy, Initial residual = 0.226245, Final residual = 0.00574234, No Iterations 5
DILUPBiCGStab:  Solving for Uz, Initial residual = 0.730635, Final residual = 0.0239014, No Iterations 5
[OGL LOG][Proc: 0]global_index_init : 24 mu s
[OGL LOG][Proc: 0]global_index_init : 6 mu s
[OGL LOG][Proc: 0]global_index_init : 17 mu s
[OGL LOG][Proc: 0]global_index_init : 5 mu s
[OGL LOG][Proc: 0]update_host_matrix_data : 1190 mu s
[OGL LOG][Proc: 0]gather_initGuess : 1 mu s
[OGL LOG][Proc: 0]gather_RHS : 3505 mu s
[OGL LOG][Proc: 0]gather_global_matrix : 0 mu s
read from registry
[OGL LOG][Proc: 0]init_precond : 7 mu s
[OGL LOG][Proc: 0]generate_solver : 1 mu s
[OGL LOG][Proc: 0]solve : 210943 mu s
[OGL LOG][Proc: 0]retrieve_result_from_device : 1324 mu s
ISAIcudaGKOCG:  Solving for p, Initial residual = 0.84121, Final residual = 6.38608e-08, No Iterations 626
time step continuity errors : sum local = 6.46957e-11, global = -2.21094e-20, cumulative = -6.11036e-20
[OGL LOG][Proc: 0]global_index_init : 48 mu s
[OGL LOG][Proc: 0]global_index_init : 9 mu s
[OGL LOG][Proc: 0]global_index_init : 7 mu s
[OGL LOG][Proc: 0]global_index_init : 7 mu s
[OGL LOG][Proc: 0]update_host_matrix_data : 1069 mu s
[OGL LOG][Proc: 0]gather_initGuess : 1 mu s
[OGL LOG][Proc: 0]gather_RHS : 3519 mu s
[OGL LOG][Proc: 0]gather_global_matrix : 0 mu s
read from registry
[OGL LOG][Proc: 0]init_precond : 6 mu s
[OGL LOG][Proc: 0]generate_solver : 0 mu s
[OGL LOG][Proc: 0]solve : 210954 mu s
[OGL LOG][Proc: 0]retrieve_result_from_device : 1379 mu s
ISAIcudaGKOCG:  Solving for p, Initial residual = 0.807262, Final residual = 6.37644e-08, No Iterations 626
time step continuity errors : sum local = 6.30315e-11, global = -2.47595e-20, cumulative = -8.58631e-20
ExecutionTime = 5.76 s  ClockTime = 10 s

End

Finalising parallel run
================================================================================
hash: d9e3b93fb0c502e3321b33a8d17d2e9f
/*---------------------------------------------------------------------------*\
| =========                 |                                                 |
| \\      /  F ield         | OpenFOAM: The Open Source CFD Toolbox           |
|  \\    /   O peration     | Version:  2112                                  |
|   \\  /    A nd           | Website:  www.openfoam.com                      |
|    \\/     M anipulation  |                                                 |
\*---------------------------------------------------------------------------*/
Build  : d44c8318f0-20220111 OPENFOAM=2112 version=v2112
Arch   : "LSB;label=32;scalar=64"
Exec   : icoFoam -parallel
Date   : Jan 28 2022
Time   : 22:37:25
Host   : hkn0621.localdomain
PID    : 215926
I/O    : uncollated
Case   : /hkfs/home/project/hk-project-test-fine/eq4036/data/code/ogl_labbook/lidDrivenCavity/resolution/Variation_mesh/100/Variation_matrix_solver/CG_ISAI_CUDA/Variation_mpiRank/8/base
nProcs : 8
Hosts  :
(
    (hkn0621.localdomain 8)
)
Pstream initialized with:
    floatTransfer      : 0
    nProcsSimpleSum    : 0
    commsType          : nonBlocking
    polling iterations : 0
trapFpe: Floating point exception trapping enabled (FOAM_SIGFPE).
fileModificationChecking : Monitoring run-time modified files using timeStampMaster (fileModificationSkew 5, maxFileModificationPolls 20)
allowSystemOperations : Allowing user-supplied system call operations

// * * * * * * * * * * * * * * * * * * * * * * * * * * * * * * * * * * * * * //
Create time

Create mesh for time = 0


PISO: Operating solver in PISO mode

Reading transportProperties

Reading field p

Reading field U

Reading/calculating face flux field phi


Starting time loop

Time = 0.001

Courant Number mean: 0 max: 0
DILUPBiCGStab:  Solving for Ux, Initial residual = 1, Final residual = 0.00976191, No Iterations 5
DILUPBiCGStab:  Solving for Uy:  solution singularity
DILUPBiCGStab:  Solving for Uz:  solution singularity
[OGL LOG][Proc: 0]global_index_init : 16401 mu s
[OGL LOG][Proc: 0]global_index_init : 2 mu s
[OGL LOG][Proc: 0]global_index_init : 1 mu s
[OGL LOG][Proc: 0]global_index_init : 1 mu s
[OGL LOG][Proc: 0]init_host_sparsity_pattern : 590869 mu s
[OGL LOG][Proc: 0]update_host_matrix_data : 5297 mu s
[OGL LOG][Proc: 0]convert_coo_to_csr : 947 mu s
[OGL LOG][Proc: 0]gather_initGuess : 4613 mu s
[OGL LOG][Proc: 0]gather_RHS : 1947 mu s
[OGL LOG][Proc: 0]gather_global_matrix : 0 mu s
[OGL LOG][Proc: 0]init_precond : 64540 mu s
[OGL LOG][Proc: 0]generate_solver : 8 mu s
[OGL LOG][Proc: 0]solve : 264751 mu s
[OGL LOG][Proc: 0]retrieve_result_from_device : 2119 mu s
ISAIcudaGKOCG:  Solving for p, Initial residual = 1, Final residual = 9.46171e-07, No Iterations 702
time step continuity errors : sum local = 5.47512e-10, global = 1.53606e-20, cumulative = 1.53606e-20
[OGL LOG][Proc: 0]global_index_init : 39 mu s
[OGL LOG][Proc: 0]global_index_init : 2 mu s
[OGL LOG][Proc: 0]global_index_init : 4 mu s
[OGL LOG][Proc: 0]global_index_init : 2 mu s
[OGL LOG][Proc: 0]update_host_matrix_data : 3572 mu s
[OGL LOG][Proc: 0]gather_initGuess : 6 mu s
[OGL LOG][Proc: 0]gather_RHS : 4170 mu s
[OGL LOG][Proc: 0]gather_global_matrix : 0 mu s
read from registry
[OGL LOG][Proc: 0]init_precond : 17 mu s
[OGL LOG][Proc: 0]generate_solver : 1 mu s
[OGL LOG][Proc: 0]solve : 227581 mu s
[OGL LOG][Proc: 0]retrieve_result_from_device : 1878 mu s
ISAIcudaGKOCG:  Solving for p, Initial residual = 0.777378, Final residual = 7.20631e-07, No Iterations 701
time step continuity errors : sum local = 5.2553e-10, global = 4.41358e-21, cumulative = 1.97742e-20
ExecutionTime = 3.35 s  ClockTime = 4 s

Time = 0.002

Courant Number mean: 0.0555224 max: 0.807219
DILUPBiCGStab:  Solving for Ux, Initial residual = 0.137481, Final residual = 0.00480444, No Iterations 5
DILUPBiCGStab:  Solving for Uy, Initial residual = 0.431367, Final residual = 0.0127824, No Iterations 5
DILUPBiCGStab:  Solving for Uz, Initial residual = 0.97357, Final residual = 0.0274117, No Iterations 5
[OGL LOG][Proc: 0]global_index_init : 24 mu s
[OGL LOG][Proc: 0]global_index_init : 1 mu s
[OGL LOG][Proc: 0]global_index_init : 2 mu s
[OGL LOG][Proc: 0]global_index_init : 1 mu s
[OGL LOG][Proc: 0]update_host_matrix_data : 3588 mu s
[OGL LOG][Proc: 0]gather_initGuess : 1 mu s
[OGL LOG][Proc: 0]gather_RHS : 3528 mu s
[OGL LOG][Proc: 0]gather_global_matrix : 0 mu s
read from registry
[OGL LOG][Proc: 0]init_precond : 15 mu s
[OGL LOG][Proc: 0]generate_solver : 0 mu s
[OGL LOG][Proc: 0]solve : 226160 mu s
[OGL LOG][Proc: 0]retrieve_result_from_device : 1315 mu s
ISAIcudaGKOCG:  Solving for p, Initial residual = 0.808994, Final residual = 3.75751e-07, No Iterations 701
time step continuity errors : sum local = 4.02819e-10, global = -1.47956e-20, cumulative = 4.97859e-21
[OGL LOG][Proc: 0]global_index_init : 43 mu s
[OGL LOG][Proc: 0]global_index_init : 2 mu s
[OGL LOG][Proc: 0]global_index_init : 2 mu s
[OGL LOG][Proc: 0]global_index_init : 2 mu s
[OGL LOG][Proc: 0]update_host_matrix_data : 3566 mu s
[OGL LOG][Proc: 0]gather_initGuess : 1 mu s
[OGL LOG][Proc: 0]gather_RHS : 2873 mu s
[OGL LOG][Proc: 0]gather_global_matrix : 0 mu s
read from registry
[OGL LOG][Proc: 0]init_precond : 10 mu s
[OGL LOG][Proc: 0]generate_solver : 0 mu s
[OGL LOG][Proc: 0]solve : 227955 mu s
[OGL LOG][Proc: 0]retrieve_result_from_device : 1418 mu s
ISAIcudaGKOCG:  Solving for p, Initial residual = 0.74964, Final residual = 3.56748e-07, No Iterations 701
time step continuity errors : sum local = 3.9029e-10, global = 1.07651e-20, cumulative = 1.57437e-20
ExecutionTime = 4.04 s  ClockTime = 5 s

Time = 0.003

Courant Number mean: 0.0846038 max: 0.943672
DILUPBiCGStab:  Solving for Ux, Initial residual = 0.0646795, Final residual = 0.00170435, No Iterations 5
DILUPBiCGStab:  Solving for Uy, Initial residual = 0.226339, Final residual = 0.004271, No Iterations 5
DILUPBiCGStab:  Solving for Uz, Initial residual = 0.765697, Final residual = 0.0189348, No Iterations 5
[OGL LOG][Proc: 0]global_index_init : 14 mu s
[OGL LOG][Proc: 0]global_index_init : 1 mu s
[OGL LOG][Proc: 0]global_index_init : 2 mu s
[OGL LOG][Proc: 0]global_index_init : 1 mu s
[OGL LOG][Proc: 0]update_host_matrix_data : 4502 mu s
[OGL LOG][Proc: 0]gather_initGuess : 1 mu s
[OGL LOG][Proc: 0]gather_RHS : 2827 mu s
[OGL LOG][Proc: 0]gather_global_matrix : 0 mu s
read from registry
[OGL LOG][Proc: 0]init_precond : 9 mu s
[OGL LOG][Proc: 0]generate_solver : 0 mu s
[OGL LOG][Proc: 0]solve : 217287 mu s
[OGL LOG][Proc: 0]retrieve_result_from_device : 1429 mu s
ISAIcudaGKOCG:  Solving for p, Initial residual = 0.837716, Final residual = 3.60896e-07, No Iterations 673
time step continuity errors : sum local = 3.57216e-10, global = -2.90504e-21, cumulative = 1.28386e-20
[OGL LOG][Proc: 0]global_index_init : 30 mu s
[OGL LOG][Proc: 0]global_index_init : 2 mu s
[OGL LOG][Proc: 0]global_index_init : 3 mu s
[OGL LOG][Proc: 0]global_index_init : 2 mu s
[OGL LOG][Proc: 0]update_host_matrix_data : 3522 mu s
[OGL LOG][Proc: 0]gather_initGuess : 1 mu s
[OGL LOG][Proc: 0]gather_RHS : 2836 mu s
[OGL LOG][Proc: 0]gather_global_matrix : 0 mu s
read from registry
[OGL LOG][Proc: 0]init_precond : 8 mu s
[OGL LOG][Proc: 0]generate_solver : 1 mu s
[OGL LOG][Proc: 0]solve : 219585 mu s
[OGL LOG][Proc: 0]retrieve_result_from_device : 1727 mu s
ISAIcudaGKOCG:  Solving for p, Initial residual = 0.805107, Final residual = 3.51053e-07, No Iterations 677
time step continuity errors : sum local = 3.39038e-10, global = -9.11107e-21, cumulative = 3.72756e-21
ExecutionTime = 4.72 s  ClockTime = 6 s

End

Finalising parallel run
================================================================================
hash: e0cfa153137fea44df99243f85fe19e1
/*---------------------------------------------------------------------------*\
| =========                 |                                                 |
| \\      /  F ield         | OpenFOAM: The Open Source CFD Toolbox           |
|  \\    /   O peration     | Version:  2112                                  |
|   \\  /    A nd           | Website:  www.openfoam.com                      |
|    \\/     M anipulation  |                                                 |
\*---------------------------------------------------------------------------*/
Build  : d44c8318f0-20220111 OPENFOAM=2112 version=v2112
Arch   : "LSB;label=32;scalar=64"
Exec   : icoFoam -parallel
Date   : Jan 28 2022
Time   : 22:37:33
Host   : hkn0621.localdomain
PID    : 216161
I/O    : uncollated
Case   : /hkfs/home/project/hk-project-test-fine/eq4036/data/code/ogl_labbook/lidDrivenCavity/resolution/Variation_mesh/100/Variation_matrix_solver/BiCGStab_NoPrecond_CUDA/Variation_mpiRank/38/base
nProcs : 38
Hosts  :
(
    (hkn0621.localdomain 38)
)
Pstream initialized with:
    floatTransfer      : 0
    nProcsSimpleSum    : 0
    commsType          : nonBlocking
    polling iterations : 0
trapFpe: Floating point exception trapping enabled (FOAM_SIGFPE).
fileModificationChecking : Monitoring run-time modified files using timeStampMaster (fileModificationSkew 5, maxFileModificationPolls 20)
allowSystemOperations : Allowing user-supplied system call operations

// * * * * * * * * * * * * * * * * * * * * * * * * * * * * * * * * * * * * * //
Create time

Create mesh for time = 0


PISO: Operating solver in PISO mode

Reading transportProperties

Reading field p

Reading field U

Reading/calculating face flux field phi


Starting time loop

Time = 0.001

Courant Number mean: 0 max: 0
DILUPBiCGStab:  Solving for Ux, Initial residual = 1, Final residual = 0.0113126, No Iterations 5
DILUPBiCGStab:  Solving for Uy:  solution singularity
DILUPBiCGStab:  Solving for Uz:  solution singularity
[OGL LOG][Proc: 0]global_index_init : 143245 mu s
[OGL LOG][Proc: 0]global_index_init : 18 mu s
[OGL LOG][Proc: 0]global_index_init : 7 mu s
[OGL LOG][Proc: 0]global_index_init : 11 mu s
[OGL LOG][Proc: 0]init_host_sparsity_pattern : 92888 mu s
[OGL LOG][Proc: 0]update_host_matrix_data : 977 mu s
[OGL LOG][Proc: 0]convert_coo_to_csr : 1102 mu s
[OGL LOG][Proc: 0]gather_initGuess : 4109 mu s
[OGL LOG][Proc: 0]gather_RHS : 2240 mu s
[OGL LOG][Proc: 0]gather_global_matrix : 4 mu s
[OGL LOG][Proc: 0]init_precond : 45 mu s
[OGL LOG][Proc: 0]generate_solver : 15 mu s
[OGL LOG][Proc: 0]solve : 386489 mu s
[OGL LOG][Proc: 0]retrieve_result_from_device : 3061 mu s
nonecudaGKOBiCGStab:  Solving for p, Initial residual = 1, Final residual = 9.89019e-07, No Iterations 691
time step continuity errors : sum local = 6.68553e-06, global = -1.37643e-20, cumulative = -1.37643e-20
[OGL LOG][Proc: 0]global_index_init : 137 mu s
[OGL LOG][Proc: 0]global_index_init : 8 mu s
[OGL LOG][Proc: 0]global_index_init : 12 mu s
[OGL LOG][Proc: 0]global_index_init : 13 mu s
[OGL LOG][Proc: 0]update_host_matrix_data : 1106 mu s
[OGL LOG][Proc: 0]gather_initGuess : 4 mu s
[OGL LOG][Proc: 0]gather_RHS : 3760 mu s
[OGL LOG][Proc: 0]gather_global_matrix : 0 mu s
read from registry
[OGL LOG][Proc: 0]init_precond : 18 mu s
[OGL LOG][Proc: 0]generate_solver : 1 mu s
[OGL LOG][Proc: 0]solve : 287566 mu s
[OGL LOG][Proc: 0]retrieve_result_from_device : 4193 mu s
nonecudaGKOBiCGStab:  Solving for p, Initial residual = 0.78035, Final residual = 9.74636e-07, No Iterations 635
time step continuity errors : sum local = 1.81639e-06, global = -1.45584e-20, cumulative = -2.83227e-20
ExecutionTime = 4.84 s  ClockTime = 8 s

Time = 0.002

Courant Number mean: 0.0552336 max: 0.807736
DILUPBiCGStab:  Solving for Ux, Initial residual = 0.137238, Final residual = 0.00606133, No Iterations 5
DILUPBiCGStab:  Solving for Uy, Initial residual = 0.431769, Final residual = 0.0172577, No Iterations 5
DILUPBiCGStab:  Solving for Uz, Initial residual = 0.953822, Final residual = 0.0360592, No Iterations 5
[OGL LOG][Proc: 0]global_index_init : 33 mu s
[OGL LOG][Proc: 0]global_index_init : 7 mu s
[OGL LOG][Proc: 0]global_index_init : 11 mu s
[OGL LOG][Proc: 0]global_index_init : 9 mu s
[OGL LOG][Proc: 0]update_host_matrix_data : 1060 mu s
[OGL LOG][Proc: 0]gather_initGuess : 1 mu s
[OGL LOG][Proc: 0]gather_RHS : 3356 mu s
[OGL LOG][Proc: 0]gather_global_matrix : 0 mu s
read from registry
[OGL LOG][Proc: 0]init_precond : 7 mu s
[OGL LOG][Proc: 0]generate_solver : 1 mu s
[OGL LOG][Proc: 0]solve : 350478 mu s
[OGL LOG][Proc: 0]retrieve_result_from_device : 2448 mu s
nonecudaGKOBiCGStab:  Solving for p, Initial residual = 0.815414, Final residual = 4.90357e-07, No Iterations 775
time step continuity errors : sum local = 9.14334e-10, global = -2.03652e-20, cumulative = -4.86878e-20
[OGL LOG][Proc: 0]global_index_init : 25 mu s
[OGL LOG][Proc: 0]global_index_init : 7 mu s
[OGL LOG][Proc: 0]global_index_init : 17 mu s
[OGL LOG][Proc: 0]global_index_init : 14 mu s
[OGL LOG][Proc: 0]update_host_matrix_data : 1088 mu s
[OGL LOG][Proc: 0]gather_initGuess : 1 mu s
[OGL LOG][Proc: 0]gather_RHS : 3497 mu s
[OGL LOG][Proc: 0]gather_global_matrix : 0 mu s
read from registry
[OGL LOG][Proc: 0]init_precond : 7 mu s
[OGL LOG][Proc: 0]generate_solver : 1 mu s
[OGL LOG][Proc: 0]solve : 302716 mu s
[OGL LOG][Proc: 0]retrieve_result_from_device : 2316 mu s
nonecudaGKOBiCGStab:  Solving for p, Initial residual = 0.756516, Final residual = 4.33373e-07, No Iterations 667
time step continuity errors : sum local = 3.76234e-06, global = -1.36584e-20, cumulative = -6.23462e-20
ExecutionTime = 5.57 s  ClockTime = 8 s

Time = 0.003

Courant Number mean: 0.084157 max: 0.943755
DILUPBiCGStab:  Solving for Ux, Initial residual = 0.0645404, Final residual = 0.0021581, No Iterations 5
DILUPBiCGStab:  Solving for Uy, Initial residual = 0.22643, Final residual = 0.00576319, No Iterations 5
DILUPBiCGStab:  Solving for Uz, Initial residual = 0.727342, Final residual = 0.0238919, No Iterations 5
[OGL LOG][Proc: 0]global_index_init : 26 mu s
[OGL LOG][Proc: 0]global_index_init : 9 mu s
[OGL LOG][Proc: 0]global_index_init : 11 mu s
[OGL LOG][Proc: 0]global_index_init : 9 mu s
[OGL LOG][Proc: 0]update_host_matrix_data : 1339 mu s
[OGL LOG][Proc: 0]gather_initGuess : 1 mu s
[OGL LOG][Proc: 0]gather_RHS : 3345 mu s
[OGL LOG][Proc: 0]gather_global_matrix : 0 mu s
read from registry
[OGL LOG][Proc: 0]init_precond : 8 mu s
[OGL LOG][Proc: 0]generate_solver : 1 mu s
[OGL LOG][Proc: 0]solve : 301925 mu s
[OGL LOG][Proc: 0]retrieve_result_from_device : 1351 mu s
nonecudaGKOBiCGStab:  Solving for p, Initial residual = 0.841872, Final residual = 6.19198e-07, No Iterations 663
time step continuity errors : sum local = 1.38185e-09, global = -1.18708e-20, cumulative = -7.4217e-20
[OGL LOG][Proc: 0]global_index_init : 25 mu s
[OGL LOG][Proc: 0]global_index_init : 7 mu s
[OGL LOG][Proc: 0]global_index_init : 4 mu s
[OGL LOG][Proc: 0]global_index_init : 9 mu s
[OGL LOG][Proc: 0]update_host_matrix_data : 917 mu s
[OGL LOG][Proc: 0]gather_initGuess : 1 mu s
[OGL LOG][Proc: 0]gather_RHS : 3298 mu s
[OGL LOG][Proc: 0]gather_global_matrix : 0 mu s
read from registry
[OGL LOG][Proc: 0]init_precond : 7 mu s
[OGL LOG][Proc: 0]generate_solver : 1 mu s
[OGL LOG][Proc: 0]solve : 318432 mu s
[OGL LOG][Proc: 0]retrieve_result_from_device : 1395 mu s
nonecudaGKOBiCGStab:  Solving for p, Initial residual = 0.80768, Final residual = 2.90667e-07, No Iterations 702
time step continuity errors : sum local = 5.79855e-10, global = -1.63171e-20, cumulative = -9.05342e-20
ExecutionTime = 6.26 s  ClockTime = 9 s

End

Finalising parallel run
================================================================================
hash: d44c920f262acd309bde2120151b01f2
/*---------------------------------------------------------------------------*\
| =========                 |                                                 |
| \\      /  F ield         | OpenFOAM: The Open Source CFD Toolbox           |
|  \\    /   O peration     | Version:  2112                                  |
|   \\  /    A nd           | Website:  www.openfoam.com                      |
|    \\/     M anipulation  |                                                 |
\*---------------------------------------------------------------------------*/
Build  : d44c8318f0-20220111 OPENFOAM=2112 version=v2112
Arch   : "LSB;label=32;scalar=64"
Exec   : icoFoam -parallel
Date   : Jan 28 2022
Time   : 22:37:46
Host   : hkn0621.localdomain
PID    : 217100
I/O    : uncollated
Case   : /hkfs/home/project/hk-project-test-fine/eq4036/data/code/ogl_labbook/lidDrivenCavity/resolution/Variation_mesh/100/Variation_matrix_solver/BiCGStab_NoPrecond_CUDA/Variation_mpiRank/8/base
nProcs : 8
Hosts  :
(
    (hkn0621.localdomain 8)
)
Pstream initialized with:
    floatTransfer      : 0
    nProcsSimpleSum    : 0
    commsType          : nonBlocking
    polling iterations : 0
trapFpe: Floating point exception trapping enabled (FOAM_SIGFPE).
fileModificationChecking : Monitoring run-time modified files using timeStampMaster (fileModificationSkew 5, maxFileModificationPolls 20)
allowSystemOperations : Allowing user-supplied system call operations

// * * * * * * * * * * * * * * * * * * * * * * * * * * * * * * * * * * * * * //
Create time

Create mesh for time = 0


PISO: Operating solver in PISO mode

Reading transportProperties

Reading field p

Reading field U

Reading/calculating face flux field phi


Starting time loop

Time = 0.001

Courant Number mean: 0 max: 0
DILUPBiCGStab:  Solving for Ux, Initial residual = 1, Final residual = 0.00976191, No Iterations 5
DILUPBiCGStab:  Solving for Uy:  solution singularity
DILUPBiCGStab:  Solving for Uz:  solution singularity
[OGL LOG][Proc: 0]global_index_init : 57 mu s
[OGL LOG][Proc: 0]global_index_init : 2 mu s
[OGL LOG][Proc: 0]global_index_init : 1 mu s
[OGL LOG][Proc: 0]global_index_init : 1 mu s
[OGL LOG][Proc: 0]init_host_sparsity_pattern : 593381 mu s
[OGL LOG][Proc: 0]update_host_matrix_data : 5369 mu s
[OGL LOG][Proc: 0]convert_coo_to_csr : 951 mu s
[OGL LOG][Proc: 0]gather_initGuess : 4467 mu s
[OGL LOG][Proc: 0]gather_RHS : 1843 mu s
[OGL LOG][Proc: 0]gather_global_matrix : 5 mu s
[OGL LOG][Proc: 0]init_precond : 38 mu s
[OGL LOG][Proc: 0]generate_solver : 11 mu s
[OGL LOG][Proc: 0]solve : 385551 mu s
[OGL LOG][Proc: 0]retrieve_result_from_device : 2449 mu s
nonecudaGKOBiCGStab:  Solving for p, Initial residual = 1, Final residual = 5.4595e-07, No Iterations 706
time step continuity errors : sum local = 0.000424942, global = -1.21973e-18, cumulative = -1.21973e-18
[OGL LOG][Proc: 0]global_index_init : 55 mu s
[OGL LOG][Proc: 0]global_index_init : 1 mu s
[OGL LOG][Proc: 0]global_index_init : 2 mu s
[OGL LOG][Proc: 0]global_index_init : 1 mu s
[OGL LOG][Proc: 0]update_host_matrix_data : 3557 mu s
[OGL LOG][Proc: 0]gather_initGuess : 7 mu s
[OGL LOG][Proc: 0]gather_RHS : 4021 mu s
[OGL LOG][Proc: 0]gather_global_matrix : 0 mu s
read from registry
[OGL LOG][Proc: 0]init_precond : 17 mu s
[OGL LOG][Proc: 0]generate_solver : 1 mu s
[OGL LOG][Proc: 0]solve : 312699 mu s
[OGL LOG][Proc: 0]retrieve_result_from_device : 2434 mu s
nonecudaGKOBiCGStab:  Solving for p, Initial residual = 0.87555, Final residual = 9.48824e-07, No Iterations 700
time step continuity errors : sum local = 2.47793e-09, global = -3.80131e-21, cumulative = -1.22353e-18
ExecutionTime = 3.46 s  ClockTime = 4 s

Time = 0.002

Courant Number mean: 0.0555313 max: 0.807219
DILUPBiCGStab:  Solving for Ux, Initial residual = 0.144609, Final residual = 0.00531434, No Iterations 5
DILUPBiCGStab:  Solving for Uy, Initial residual = 0.449861, Final residual = 0.0143645, No Iterations 5
DILUPBiCGStab:  Solving for Uz, Initial residual = 0.895865, Final residual = 0.0481923, No Iterations 5
[OGL LOG][Proc: 0]global_index_init : 12 mu s
[OGL LOG][Proc: 0]global_index_init : 1 mu s
[OGL LOG][Proc: 0]global_index_init : 2 mu s
[OGL LOG][Proc: 0]global_index_init : 1 mu s
[OGL LOG][Proc: 0]update_host_matrix_data : 3530 mu s
[OGL LOG][Proc: 0]gather_initGuess : 1 mu s
[OGL LOG][Proc: 0]gather_RHS : 2722 mu s
[OGL LOG][Proc: 0]gather_global_matrix : 0 mu s
read from registry
[OGL LOG][Proc: 0]init_precond : 8 mu s
[OGL LOG][Proc: 0]generate_solver : 1 mu s
[OGL LOG][Proc: 0]solve : 374886 mu s
[OGL LOG][Proc: 0]retrieve_result_from_device : 2321 mu s
nonecudaGKOBiCGStab:  Solving for p, Initial residual = 0.937204, Final residual = 8.85034e-08, No Iterations 840
time step continuity errors : sum local = 2.96738e-10, global = 2.49395e-22, cumulative = -1.22328e-18
[OGL LOG][Proc: 0]global_index_init : 9 mu s
[OGL LOG][Proc: 0]global_index_init : 2 mu s
[OGL LOG][Proc: 0]global_index_init : 2 mu s
[OGL LOG][Proc: 0]global_index_init : 1 mu s
[OGL LOG][Proc: 0]update_host_matrix_data : 4517 mu s
[OGL LOG][Proc: 0]gather_initGuess : 1 mu s
[OGL LOG][Proc: 0]gather_RHS : 4029 mu s
[OGL LOG][Proc: 0]gather_global_matrix : 0 mu s
read from registry
[OGL LOG][Proc: 0]init_precond : 7 mu s
[OGL LOG][Proc: 0]generate_solver : 1 mu s
[OGL LOG][Proc: 0]solve : 322163 mu s
[OGL LOG][Proc: 0]retrieve_result_from_device : 1583 mu s
nonecudaGKOBiCGStab:  Solving for p, Initial residual = 0.860317, Final residual = 9.9787e-08, No Iterations 726
time step continuity errors : sum local = 6.53272e-10, global = -1.3126e-20, cumulative = -1.23641e-18
ExecutionTime = 4.4 s  ClockTime = 4 s

Time = 0.003

Courant Number mean: 0.0852323 max: 0.944279
DILUPBiCGStab:  Solving for Ux, Initial residual = 0.0732654, Final residual = 0.00182468, No Iterations 5
DILUPBiCGStab:  Solving for Uy, Initial residual = 0.271788, Final residual = 0.00675392, No Iterations 5
DILUPBiCGStab:  Solving for Uz, Initial residual = 0.828158, Final residual = 0.027118, No Iterations 5
[OGL LOG][Proc: 0]global_index_init : 11 mu s
[OGL LOG][Proc: 0]global_index_init : 1 mu s
[OGL LOG][Proc: 0]global_index_init : 2 mu s
[OGL LOG][Proc: 0]global_index_init : 1 mu s
[OGL LOG][Proc: 0]update_host_matrix_data : 3495 mu s
[OGL LOG][Proc: 0]gather_initGuess : 2 mu s
[OGL LOG][Proc: 0]gather_RHS : 3191 mu s
[OGL LOG][Proc: 0]gather_global_matrix : 0 mu s
read from registry
[OGL LOG][Proc: 0]init_precond : 7 mu s
[OGL LOG][Proc: 0]generate_solver : 1 mu s
[OGL LOG][Proc: 0]solve : 322682 mu s
[OGL LOG][Proc: 0]retrieve_result_from_device : 2014 mu s
nonecudaGKOBiCGStab:  Solving for p, Initial residual = 0.926369, Final residual = 9.98478e-07, No Iterations 725
time step continuity errors : sum local = 4.46089e-09, global = -1.91383e-20, cumulative = -1.25554e-18
[OGL LOG][Proc: 0]global_index_init : 26 mu s
[OGL LOG][Proc: 0]global_index_init : 1 mu s
[OGL LOG][Proc: 0]global_index_init : 1 mu s
[OGL LOG][Proc: 0]global_index_init : 1 mu s
[OGL LOG][Proc: 0]update_host_matrix_data : 3557 mu s
[OGL LOG][Proc: 0]gather_initGuess : 1 mu s
[OGL LOG][Proc: 0]gather_RHS : 2773 mu s
[OGL LOG][Proc: 0]gather_global_matrix : 0 mu s
read from registry
[OGL LOG][Proc: 0]init_precond : 8 mu s
[OGL LOG][Proc: 0]generate_solver : 1 mu s
[OGL LOG][Proc: 0]solve : 322227 mu s
[OGL LOG][Proc: 0]retrieve_result_from_device : 1715 mu s
nonecudaGKOBiCGStab:  Solving for p, Initial residual = 0.861646, Final residual = 7.6308e-07, No Iterations 725
time step continuity errors : sum local = 3.69142e-09, global = 1.7042e-21, cumulative = -1.25384e-18
ExecutionTime = 5.28 s  ClockTime = 5 s

End

Finalising parallel run
================================================================================
hash: c8238946d312ea01bf47cfe6f73127ba
/*---------------------------------------------------------------------------*\
| =========                 |                                                 |
| \\      /  F ield         | OpenFOAM: The Open Source CFD Toolbox           |
|  \\    /   O peration     | Version:  2112                                  |
|   \\  /    A nd           | Website:  www.openfoam.com                      |
|    \\/     M anipulation  |                                                 |
\*---------------------------------------------------------------------------*/
Build  : d44c8318f0-20220111 OPENFOAM=2112 version=v2112
Arch   : "LSB;label=32;scalar=64"
Exec   : icoFoam -parallel
Date   : Jan 28 2022
Time   : 22:37:54
Host   : hkn0621.localdomain
PID    : 217313
I/O    : uncollated
Case   : /hkfs/home/project/hk-project-test-fine/eq4036/data/code/ogl_labbook/lidDrivenCavity/resolution/Variation_mesh/100/Variation_matrix_solver/CG_NoPrecond_CUDA/Variation_mpiRank/38/base
nProcs : 38
Hosts  :
(
    (hkn0621.localdomain 38)
)
Pstream initialized with:
    floatTransfer      : 0
    nProcsSimpleSum    : 0
    commsType          : nonBlocking
    polling iterations : 0
trapFpe: Floating point exception trapping enabled (FOAM_SIGFPE).
fileModificationChecking : Monitoring run-time modified files using timeStampMaster (fileModificationSkew 5, maxFileModificationPolls 20)
allowSystemOperations : Allowing user-supplied system call operations

// * * * * * * * * * * * * * * * * * * * * * * * * * * * * * * * * * * * * * //
Create time

Create mesh for time = 0


PISO: Operating solver in PISO mode

Reading transportProperties

Reading field p

Reading field U

Reading/calculating face flux field phi


Starting time loop

Time = 0.001

Courant Number mean: 0 max: 0
DILUPBiCGStab:  Solving for Ux, Initial residual = 1, Final residual = 0.0113126, No Iterations 5
DILUPBiCGStab:  Solving for Uy:  solution singularity
DILUPBiCGStab:  Solving for Uz:  solution singularity
[OGL LOG][Proc: 0]global_index_init : 105733 mu s
[OGL LOG][Proc: 0]global_index_init : 16 mu s
[OGL LOG][Proc: 0]global_index_init : 13 mu s
[OGL LOG][Proc: 0]global_index_init : 11 mu s
[OGL LOG][Proc: 0]init_host_sparsity_pattern : 92204 mu s
[OGL LOG][Proc: 0]update_host_matrix_data : 884 mu s
[OGL LOG][Proc: 0]convert_coo_to_csr : 1104 mu s
[OGL LOG][Proc: 0]gather_initGuess : 4391 mu s
[OGL LOG][Proc: 0]gather_RHS : 2297 mu s
[OGL LOG][Proc: 0]gather_global_matrix : 0 mu s
[OGL LOG][Proc: 0]init_precond : 51 mu s
[OGL LOG][Proc: 0]generate_solver : 25 mu s
[OGL LOG][Proc: 0]solve : 238812 mu s
[OGL LOG][Proc: 0]retrieve_result_from_device : 2687 mu s
nonecudaGKOCG:  Solving for p, Initial residual = 1, Final residual = 9.26905e-07, No Iterations 861
time step continuity errors : sum local = 5.48543e-10, global = -8.59808e-21, cumulative = -8.59808e-21
[OGL LOG][Proc: 0]global_index_init : 127 mu s
[OGL LOG][Proc: 0]global_index_init : 13 mu s
[OGL LOG][Proc: 0]global_index_init : 11 mu s
[OGL LOG][Proc: 0]global_index_init : 11 mu s
[OGL LOG][Proc: 0]update_host_matrix_data : 997 mu s
[OGL LOG][Proc: 0]gather_initGuess : 4 mu s
[OGL LOG][Proc: 0]gather_RHS : 3779 mu s
[OGL LOG][Proc: 0]gather_global_matrix : 0 mu s
read from registry
[OGL LOG][Proc: 0]init_precond : 16 mu s
[OGL LOG][Proc: 0]generate_solver : 1 mu s
[OGL LOG][Proc: 0]solve : 195525 mu s
[OGL LOG][Proc: 0]retrieve_result_from_device : 3042 mu s
nonecudaGKOCG:  Solving for p, Initial residual = 0.777482, Final residual = 1.7622e-07, No Iterations 885
time step continuity errors : sum local = 1.31231e-10, global = -1.48902e-20, cumulative = -2.34883e-20
ExecutionTime = 4.64 s  ClockTime = 7 s

Time = 0.002

Courant Number mean: 0.0552338 max: 0.807703
DILUPBiCGStab:  Solving for Ux, Initial residual = 0.137184, Final residual = 0.00605911, No Iterations 5
DILUPBiCGStab:  Solving for Uy, Initial residual = 0.431634, Final residual = 0.017243, No Iterations 5
DILUPBiCGStab:  Solving for Uz, Initial residual = 0.955192, Final residual = 0.0356002, No Iterations 5
[OGL LOG][Proc: 0]global_index_init : 37 mu s
[OGL LOG][Proc: 0]global_index_init : 15 mu s
[OGL LOG][Proc: 0]global_index_init : 11 mu s
[OGL LOG][Proc: 0]global_index_init : 8 mu s
[OGL LOG][Proc: 0]update_host_matrix_data : 1009 mu s
[OGL LOG][Proc: 0]gather_initGuess : 1 mu s
[OGL LOG][Proc: 0]gather_RHS : 3265 mu s
[OGL LOG][Proc: 0]gather_global_matrix : 0 mu s
read from registry
[OGL LOG][Proc: 0]init_precond : 7 mu s
[OGL LOG][Proc: 0]generate_solver : 1 mu s
[OGL LOG][Proc: 0]solve : 194942 mu s
[OGL LOG][Proc: 0]retrieve_result_from_device : 2334 mu s
nonecudaGKOCG:  Solving for p, Initial residual = 0.818388, Final residual = 1.93998e-07, No Iterations 876
time step continuity errors : sum local = 2.1885e-10, global = 2.25007e-22, cumulative = -2.32633e-20
[OGL LOG][Proc: 0]global_index_init : 30 mu s
[OGL LOG][Proc: 0]global_index_init : 9 mu s
[OGL LOG][Proc: 0]global_index_init : 10 mu s
[OGL LOG][Proc: 0]global_index_init : 14 mu s
[OGL LOG][Proc: 0]update_host_matrix_data : 1046 mu s
[OGL LOG][Proc: 0]gather_initGuess : 1 mu s
[OGL LOG][Proc: 0]gather_RHS : 3260 mu s
[OGL LOG][Proc: 0]gather_global_matrix : 0 mu s
read from registry
[OGL LOG][Proc: 0]init_precond : 7 mu s
[OGL LOG][Proc: 0]generate_solver : 2 mu s
[OGL LOG][Proc: 0]solve : 193528 mu s
[OGL LOG][Proc: 0]retrieve_result_from_device : 1583 mu s
nonecudaGKOCG:  Solving for p, Initial residual = 0.75826, Final residual = 1.68379e-07, No Iterations 876
time step continuity errors : sum local = 1.94061e-10, global = -1.09339e-20, cumulative = -3.41971e-20
ExecutionTime = 5.1 s  ClockTime = 8 s

Time = 0.003

Courant Number mean: 0.0841485 max: 0.943746
DILUPBiCGStab:  Solving for Ux, Initial residual = 0.0644956, Final residual = 0.00215472, No Iterations 5
DILUPBiCGStab:  Solving for Uy, Initial residual = 0.226245, Final residual = 0.00574233, No Iterations 5
DILUPBiCGStab:  Solving for Uz, Initial residual = 0.730635, Final residual = 0.0239014, No Iterations 5
[OGL LOG][Proc: 0]global_index_init : 44 mu s
[OGL LOG][Proc: 0]global_index_init : 11 mu s
[OGL LOG][Proc: 0]global_index_init : 8 mu s
[OGL LOG][Proc: 0]global_index_init : 9 mu s
[OGL LOG][Proc: 0]update_host_matrix_data : 993 mu s
[OGL LOG][Proc: 0]gather_initGuess : 1 mu s
[OGL LOG][Proc: 0]gather_RHS : 3296 mu s
[OGL LOG][Proc: 0]gather_global_matrix : 0 mu s
read from registry
[OGL LOG][Proc: 0]init_precond : 8 mu s
[OGL LOG][Proc: 0]generate_solver : 1 mu s
[OGL LOG][Proc: 0]solve : 193517 mu s
[OGL LOG][Proc: 0]retrieve_result_from_device : 1397 mu s
nonecudaGKOCG:  Solving for p, Initial residual = 0.84121, Final residual = 1.69649e-07, No Iterations 876
time step continuity errors : sum local = 1.71873e-10, global = -8.79275e-21, cumulative = -4.29899e-20
[OGL LOG][Proc: 0]global_index_init : 30 mu s
[OGL LOG][Proc: 0]global_index_init : 9 mu s
[OGL LOG][Proc: 0]global_index_init : 10 mu s
[OGL LOG][Proc: 0]global_index_init : 12 mu s
[OGL LOG][Proc: 0]update_host_matrix_data : 985 mu s
[OGL LOG][Proc: 0]gather_initGuess : 1 mu s
[OGL LOG][Proc: 0]gather_RHS : 3279 mu s
[OGL LOG][Proc: 0]gather_global_matrix : 0 mu s
read from registry
[OGL LOG][Proc: 0]init_precond : 8 mu s
[OGL LOG][Proc: 0]generate_solver : 1 mu s
[OGL LOG][Proc: 0]solve : 193648 mu s
[OGL LOG][Proc: 0]retrieve_result_from_device : 1374 mu s
nonecudaGKOCG:  Solving for p, Initial residual = 0.807262, Final residual = 1.54788e-07, No Iterations 876
time step continuity errors : sum local = 1.53014e-10, global = -1.80231e-20, cumulative = -6.1013e-20
ExecutionTime = 5.56 s  ClockTime = 8 s

End

Finalising parallel run
================================================================================
hash: 972b5e21851fb95b6608fd98a460cab8
/*---------------------------------------------------------------------------*\
| =========                 |                                                 |
| \\      /  F ield         | OpenFOAM: The Open Source CFD Toolbox           |
|  \\    /   O peration     | Version:  2112                                  |
|   \\  /    A nd           | Website:  www.openfoam.com                      |
|    \\/     M anipulation  |                                                 |
\*---------------------------------------------------------------------------*/
Build  : d44c8318f0-20220111 OPENFOAM=2112 version=v2112
Arch   : "LSB;label=32;scalar=64"
Exec   : icoFoam -parallel
Date   : Jan 28 2022
Time   : 22:38:06
Host   : hkn0621.localdomain
PID    : 218244
I/O    : uncollated
Case   : /hkfs/home/project/hk-project-test-fine/eq4036/data/code/ogl_labbook/lidDrivenCavity/resolution/Variation_mesh/100/Variation_matrix_solver/CG_NoPrecond_CUDA/Variation_mpiRank/8/base
nProcs : 8
Hosts  :
(
    (hkn0621.localdomain 8)
)
Pstream initialized with:
    floatTransfer      : 0
    nProcsSimpleSum    : 0
    commsType          : nonBlocking
    polling iterations : 0
trapFpe: Floating point exception trapping enabled (FOAM_SIGFPE).
fileModificationChecking : Monitoring run-time modified files using timeStampMaster (fileModificationSkew 5, maxFileModificationPolls 20)
allowSystemOperations : Allowing user-supplied system call operations

// * * * * * * * * * * * * * * * * * * * * * * * * * * * * * * * * * * * * * //
Create time

Create mesh for time = 0


PISO: Operating solver in PISO mode

Reading transportProperties

Reading field p

Reading field U

Reading/calculating face flux field phi


Starting time loop

Time = 0.001

Courant Number mean: 0 max: 0
DILUPBiCGStab:  Solving for Ux, Initial residual = 1, Final residual = 0.00976191, No Iterations 5
DILUPBiCGStab:  Solving for Uy:  solution singularity
DILUPBiCGStab:  Solving for Uz:  solution singularity
[OGL LOG][Proc: 0]global_index_init : 54 mu s
[OGL LOG][Proc: 0]global_index_init : 2 mu s
[OGL LOG][Proc: 0]global_index_init : 2 mu s
[OGL LOG][Proc: 0]global_index_init : 1 mu s
[OGL LOG][Proc: 0]init_host_sparsity_pattern : 591782 mu s
[OGL LOG][Proc: 0]update_host_matrix_data : 5307 mu s
[OGL LOG][Proc: 0]convert_coo_to_csr : 961 mu s
[OGL LOG][Proc: 0]gather_initGuess : 4548 mu s
[OGL LOG][Proc: 0]gather_RHS : 1943 mu s
[OGL LOG][Proc: 0]gather_global_matrix : 0 mu s
[OGL LOG][Proc: 0]init_precond : 48 mu s
[OGL LOG][Proc: 0]generate_solver : 11 mu s
[OGL LOG][Proc: 0]solve : 250998 mu s
[OGL LOG][Proc: 0]retrieve_result_from_device : 2206 mu s
nonecudaGKOCG:  Solving for p, Initial residual = 1, Final residual = 9.67315e-07, No Iterations 901
time step continuity errors : sum local = 5.59741e-10, global = 1.59842e-20, cumulative = 1.59842e-20
[OGL LOG][Proc: 0]global_index_init : 39 mu s
[OGL LOG][Proc: 0]global_index_init : 1 mu s
[OGL LOG][Proc: 0]global_index_init : 2 mu s
[OGL LOG][Proc: 0]global_index_init : 1 mu s
[OGL LOG][Proc: 0]update_host_matrix_data : 3556 mu s
[OGL LOG][Proc: 0]gather_initGuess : 6 mu s
[OGL LOG][Proc: 0]gather_RHS : 4007 mu s
[OGL LOG][Proc: 0]gather_global_matrix : 0 mu s
read from registry
[OGL LOG][Proc: 0]init_precond : 17 mu s
[OGL LOG][Proc: 0]generate_solver : 1 mu s
[OGL LOG][Proc: 0]solve : 200507 mu s
[OGL LOG][Proc: 0]retrieve_result_from_device : 1593 mu s
nonecudaGKOCG:  Solving for p, Initial residual = 0.777378, Final residual = 6.70122e-07, No Iterations 901
time step continuity errors : sum local = 4.88693e-10, global = 4.85245e-21, cumulative = 2.08366e-20
ExecutionTime = 3.21 s  ClockTime = 3 s

Time = 0.002

Courant Number mean: 0.0555224 max: 0.807219
DILUPBiCGStab:  Solving for Ux, Initial residual = 0.137481, Final residual = 0.00480444, No Iterations 5
DILUPBiCGStab:  Solving for Uy, Initial residual = 0.431367, Final residual = 0.0127824, No Iterations 5
DILUPBiCGStab:  Solving for Uz, Initial residual = 0.97357, Final residual = 0.0274119, No Iterations 5
[OGL LOG][Proc: 0]global_index_init : 6 mu s
[OGL LOG][Proc: 0]global_index_init : 2 mu s
[OGL LOG][Proc: 0]global_index_init : 1 mu s
[OGL LOG][Proc: 0]global_index_init : 1 mu s
[OGL LOG][Proc: 0]update_host_matrix_data : 3627 mu s
[OGL LOG][Proc: 0]gather_initGuess : 3 mu s
[OGL LOG][Proc: 0]gather_RHS : 3469 mu s
[OGL LOG][Proc: 0]gather_global_matrix : 0 mu s
read from registry
[OGL LOG][Proc: 0]init_precond : 8 mu s
[OGL LOG][Proc: 0]generate_solver : 1 mu s
[OGL LOG][Proc: 0]solve : 200800 mu s
[OGL LOG][Proc: 0]retrieve_result_from_device : 2284 mu s
nonecudaGKOCG:  Solving for p, Initial residual = 0.808994, Final residual = 4.77157e-07, No Iterations 901
time step continuity errors : sum local = 5.11533e-10, global = -1.4765e-21, cumulative = 1.93601e-20
[OGL LOG][Proc: 0]global_index_init : 20 mu s
[OGL LOG][Proc: 0]global_index_init : 1 mu s
[OGL LOG][Proc: 0]global_index_init : 2 mu s
[OGL LOG][Proc: 0]global_index_init : 1 mu s
[OGL LOG][Proc: 0]update_host_matrix_data : 3576 mu s
[OGL LOG][Proc: 0]gather_initGuess : 1 mu s
[OGL LOG][Proc: 0]gather_RHS : 2674 mu s
[OGL LOG][Proc: 0]gather_global_matrix : 0 mu s
read from registry
[OGL LOG][Proc: 0]init_precond : 7 mu s
[OGL LOG][Proc: 0]generate_solver : 0 mu s
[OGL LOG][Proc: 0]solve : 200541 mu s
[OGL LOG][Proc: 0]retrieve_result_from_device : 2407 mu s
nonecudaGKOCG:  Solving for p, Initial residual = 0.74964, Final residual = 4.06032e-07, No Iterations 901
time step continuity errors : sum local = 4.4421e-10, global = 8.13489e-21, cumulative = 2.7495e-20
ExecutionTime = 3.86 s  ClockTime = 4 s

Time = 0.003

Courant Number mean: 0.0846038 max: 0.943672
DILUPBiCGStab:  Solving for Ux, Initial residual = 0.0646795, Final residual = 0.00170435, No Iterations 5
DILUPBiCGStab:  Solving for Uy, Initial residual = 0.226339, Final residual = 0.00427099, No Iterations 5
DILUPBiCGStab:  Solving for Uz, Initial residual = 0.765697, Final residual = 0.0189349, No Iterations 5
[OGL LOG][Proc: 0]global_index_init : 5 mu s
[OGL LOG][Proc: 0]global_index_init : 2 mu s
[OGL LOG][Proc: 0]global_index_init : 1 mu s
[OGL LOG][Proc: 0]global_index_init : 1 mu s
[OGL LOG][Proc: 0]update_host_matrix_data : 4535 mu s
[OGL LOG][Proc: 0]gather_initGuess : 1 mu s
[OGL LOG][Proc: 0]gather_RHS : 2705 mu s
[OGL LOG][Proc: 0]gather_global_matrix : 0 mu s
read from registry
[OGL LOG][Proc: 0]init_precond : 7 mu s
[OGL LOG][Proc: 0]generate_solver : 1 mu s
[OGL LOG][Proc: 0]solve : 200309 mu s
[OGL LOG][Proc: 0]retrieve_result_from_device : 2325 mu s
nonecudaGKOCG:  Solving for p, Initial residual = 0.837716, Final residual = 4.1872e-07, No Iterations 901
time step continuity errors : sum local = 4.14454e-10, global = -8.73205e-21, cumulative = 1.87629e-20
[OGL LOG][Proc: 0]global_index_init : 6 mu s
[OGL LOG][Proc: 0]global_index_init : 1 mu s
[OGL LOG][Proc: 0]global_index_init : 1 mu s
[OGL LOG][Proc: 0]global_index_init : 1 mu s
[OGL LOG][Proc: 0]update_host_matrix_data : 3543 mu s
[OGL LOG][Proc: 0]gather_initGuess : 1 mu s
[OGL LOG][Proc: 0]gather_RHS : 2690 mu s
[OGL LOG][Proc: 0]gather_global_matrix : 0 mu s
read from registry
[OGL LOG][Proc: 0]init_precond : 8 mu s
[OGL LOG][Proc: 0]generate_solver : 1 mu s
[OGL LOG][Proc: 0]solve : 200433 mu s
[OGL LOG][Proc: 0]retrieve_result_from_device : 2308 mu s
nonecudaGKOCG:  Solving for p, Initial residual = 0.805107, Final residual = 3.93572e-07, No Iterations 901
time step continuity errors : sum local = 3.80108e-10, global = -5.27256e-21, cumulative = 1.34904e-20
ExecutionTime = 4.5 s  ClockTime = 5 s

End

Finalising parallel run
================================================================================
hash: 7662f91fe4b22fa11f0f758d739d33a8
/*---------------------------------------------------------------------------*\
| =========                 |                                                 |
| \\      /  F ield         | OpenFOAM: The Open Source CFD Toolbox           |
|  \\    /   O peration     | Version:  2112                                  |
|   \\  /    A nd           | Website:  www.openfoam.com                      |
|    \\/     M anipulation  |                                                 |
\*---------------------------------------------------------------------------*/
Build  : d44c8318f0-20220111 OPENFOAM=2112 version=v2112
Arch   : "LSB;label=32;scalar=64"
Exec   : icoFoam -parallel
Date   : Jan 28 2022
Time   : 22:38:13
Host   : hkn0621.localdomain
PID    : 218474
I/O    : uncollated
Case   : /hkfs/home/project/hk-project-test-fine/eq4036/data/code/ogl_labbook/lidDrivenCavity/resolution/Variation_mesh/100/Variation_matrix_solver/BiCGStab_ISAI_CUDA/Variation_mpiRank/38/base
nProcs : 38
Hosts  :
(
    (hkn0621.localdomain 38)
)
Pstream initialized with:
    floatTransfer      : 0
    nProcsSimpleSum    : 0
    commsType          : nonBlocking
    polling iterations : 0
trapFpe: Floating point exception trapping enabled (FOAM_SIGFPE).
fileModificationChecking : Monitoring run-time modified files using timeStampMaster (fileModificationSkew 5, maxFileModificationPolls 20)
allowSystemOperations : Allowing user-supplied system call operations

// * * * * * * * * * * * * * * * * * * * * * * * * * * * * * * * * * * * * * //
Create time

Create mesh for time = 0


PISO: Operating solver in PISO mode

Reading transportProperties

Reading field p

Reading field U

Reading/calculating face flux field phi


Starting time loop

Time = 0.001

Courant Number mean: 0 max: 0
DILUPBiCGStab:  Solving for Ux, Initial residual = 1, Final residual = 0.0113126, No Iterations 5
DILUPBiCGStab:  Solving for Uy:  solution singularity
DILUPBiCGStab:  Solving for Uz:  solution singularity
[OGL LOG][Proc: 0]global_index_init : 57820 mu s
[OGL LOG][Proc: 0]global_index_init : 22 mu s
[OGL LOG][Proc: 0]global_index_init : 12 mu s
[OGL LOG][Proc: 0]global_index_init : 11 mu s
[OGL LOG][Proc: 0]init_host_sparsity_pattern : 91728 mu s
[OGL LOG][Proc: 0]update_host_matrix_data : 869 mu s
[OGL LOG][Proc: 0]convert_coo_to_csr : 1095 mu s
[OGL LOG][Proc: 0]gather_initGuess : 4247 mu s
[OGL LOG][Proc: 0]gather_RHS : 2286 mu s
[OGL LOG][Proc: 0]gather_global_matrix : 4 mu s
[OGL LOG][Proc: 0]init_precond : 69413 mu s
[OGL LOG][Proc: 0]generate_solver : 7 mu s
[OGL LOG][Proc: 0]solve : 556168 mu s
[OGL LOG][Proc: 0]retrieve_result_from_device : 3196 mu s
ISAIcudaGKOBiCGStab:  Solving for p, Initial residual = 1, Final residual = 3.72073e-09, No Iterations 696
time step continuity errors : sum local = 8.32835e-09, global = -1.45253e-20, cumulative = -1.45253e-20
[OGL LOG][Proc: 0]global_index_init : 95 mu s
[OGL LOG][Proc: 0]global_index_init : 14 mu s
[OGL LOG][Proc: 0]global_index_init : 9 mu s
[OGL LOG][Proc: 0]global_index_init : 16 mu s
[OGL LOG][Proc: 0]update_host_matrix_data : 1064 mu s
[OGL LOG][Proc: 0]gather_initGuess : 4 mu s
[OGL LOG][Proc: 0]gather_RHS : 3758 mu s
[OGL LOG][Proc: 0]gather_global_matrix : 0 mu s
read from registry
[OGL LOG][Proc: 0]init_precond : 16 mu s
[OGL LOG][Proc: 0]generate_solver : 0 mu s
[OGL LOG][Proc: 0]solve : 378172 mu s
[OGL LOG][Proc: 0]retrieve_result_from_device : 3146 mu s
ISAIcudaGKOBiCGStab:  Solving for p, Initial residual = 0.777479, Final residual = 8.09835e-07, No Iterations 554
time step continuity errors : sum local = 1.16432e-09, global = -1.51773e-20, cumulative = -2.97026e-20
ExecutionTime = 5.12 s  ClockTime = 8 s

Time = 0.002

Courant Number mean: 0.0552338 max: 0.807703
DILUPBiCGStab:  Solving for Ux, Initial residual = 0.137184, Final residual = 0.00605912, No Iterations 5
DILUPBiCGStab:  Solving for Uy, Initial residual = 0.431634, Final residual = 0.0172431, No Iterations 5
DILUPBiCGStab:  Solving for Uz, Initial residual = 0.955195, Final residual = 0.0356008, No Iterations 5
[OGL LOG][Proc: 0]global_index_init : 33 mu s
[OGL LOG][Proc: 0]global_index_init : 10 mu s
[OGL LOG][Proc: 0]global_index_init : 7 mu s
[OGL LOG][Proc: 0]global_index_init : 12 mu s
[OGL LOG][Proc: 0]update_host_matrix_data : 1082 mu s
[OGL LOG][Proc: 0]gather_initGuess : 0 mu s
[OGL LOG][Proc: 0]gather_RHS : 11330 mu s
[OGL LOG][Proc: 0]gather_global_matrix : 0 mu s
read from registry
[OGL LOG][Proc: 0]init_precond : 7 mu s
[OGL LOG][Proc: 0]generate_solver : 1 mu s
[OGL LOG][Proc: 0]solve : 452208 mu s
[OGL LOG][Proc: 0]retrieve_result_from_device : 3661 mu s
ISAIcudaGKOBiCGStab:  Solving for p, Initial residual = 0.818385, Final residual = 1.41268e-07, No Iterations 660
time step continuity errors : sum local = 1.59387e-10, global = -2.19429e-21, cumulative = -3.18968e-20
[OGL LOG][Proc: 0]global_index_init : 24 mu s
[OGL LOG][Proc: 0]global_index_init : 9 mu s
[OGL LOG][Proc: 0]global_index_init : 10 mu s
[OGL LOG][Proc: 0]global_index_init : 14 mu s
[OGL LOG][Proc: 0]update_host_matrix_data : 1289 mu s
[OGL LOG][Proc: 0]gather_initGuess : 0 mu s
[OGL LOG][Proc: 0]gather_RHS : 4926 mu s
[OGL LOG][Proc: 0]gather_global_matrix : 0 mu s
read from registry
[OGL LOG][Proc: 0]init_precond : 8 mu s
[OGL LOG][Proc: 0]generate_solver : 1 mu s
[OGL LOG][Proc: 0]solve : 566720 mu s
[OGL LOG][Proc: 0]retrieve_result_from_device : 1760 mu s
ISAIcudaGKOBiCGStab:  Solving for p, Initial residual = 0.758257, Final residual = 1.60281e-07, No Iterations 832
time step continuity errors : sum local = 1.84739e-10, global = -8.93972e-21, cumulative = -4.08366e-20
ExecutionTime = 6.22 s  ClockTime = 9 s

Time = 0.003

Courant Number mean: 0.0841485 max: 0.943746
DILUPBiCGStab:  Solving for Ux, Initial residual = 0.0644957, Final residual = 0.00215472, No Iterations 5
DILUPBiCGStab:  Solving for Uy, Initial residual = 0.226245, Final residual = 0.0057423, No Iterations 5
DILUPBiCGStab:  Solving for Uz, Initial residual = 0.730638, Final residual = 0.0239016, No Iterations 5
[OGL LOG][Proc: 0]global_index_init : 41 mu s
[OGL LOG][Proc: 0]global_index_init : 6 mu s
[OGL LOG][Proc: 0]global_index_init : 16 mu s
[OGL LOG][Proc: 0]global_index_init : 5 mu s
[OGL LOG][Proc: 0]update_host_matrix_data : 927 mu s
[OGL LOG][Proc: 0]gather_initGuess : 0 mu s
[OGL LOG][Proc: 0]gather_RHS : 3265 mu s
[OGL LOG][Proc: 0]gather_global_matrix : 0 mu s
read from registry
[OGL LOG][Proc: 0]init_precond : 6 mu s
[OGL LOG][Proc: 0]generate_solver : 0 mu s
[OGL LOG][Proc: 0]solve : 1946936 mu s
[OGL LOG][Proc: 0]retrieve_result_from_device : 2127 mu s
ISAIcudaGKOBiCGStab:  Solving for p, Initial residual = 0.841209, Final residual = 9.41678e-07, No Iterations 2871
time step continuity errors : sum local = 9.53973e-10, global = -8.09034e-21, cumulative = -4.89269e-20
[OGL LOG][Proc: 0]global_index_init : 24 mu s
[OGL LOG][Proc: 0]global_index_init : 8 mu s
[OGL LOG][Proc: 0]global_index_init : 13 mu s
[OGL LOG][Proc: 0]global_index_init : 11 mu s
[OGL LOG][Proc: 0]update_host_matrix_data : 1040 mu s
[OGL LOG][Proc: 0]gather_initGuess : 0 mu s
[OGL LOG][Proc: 0]gather_RHS : 3267 mu s
[OGL LOG][Proc: 0]gather_global_matrix : 0 mu s
read from registry
[OGL LOG][Proc: 0]init_precond : 7 mu s
[OGL LOG][Proc: 0]generate_solver : 1 mu s
[OGL LOG][Proc: 0]solve : 809433 mu s
[OGL LOG][Proc: 0]retrieve_result_from_device : 1353 mu s
ISAIcudaGKOBiCGStab:  Solving for p, Initial residual = 0.807262, Final residual = 4.89284e-13, No Iterations 1197
time step continuity errors : sum local = 6.56322e-16, global = -1.44339e-20, cumulative = -6.33608e-20
ExecutionTime = 9.05 s  ClockTime = 12 s

End

Finalising parallel run
================================================================================
hash: 31c8b868f9e223ee661536b522b5579a
/*---------------------------------------------------------------------------*\
| =========                 |                                                 |
| \\      /  F ield         | OpenFOAM: The Open Source CFD Toolbox           |
|  \\    /   O peration     | Version:  2112                                  |
|   \\  /    A nd           | Website:  www.openfoam.com                      |
|    \\/     M anipulation  |                                                 |
\*---------------------------------------------------------------------------*/
Build  : d44c8318f0-20220111 OPENFOAM=2112 version=v2112
Arch   : "LSB;label=32;scalar=64"
Exec   : icoFoam -parallel
Date   : Jan 28 2022
Time   : 22:38:29
Host   : hkn0621.localdomain
PID    : 219405
I/O    : uncollated
Case   : /hkfs/home/project/hk-project-test-fine/eq4036/data/code/ogl_labbook/lidDrivenCavity/resolution/Variation_mesh/100/Variation_matrix_solver/BiCGStab_ISAI_CUDA/Variation_mpiRank/8/base
nProcs : 8
Hosts  :
(
    (hkn0621.localdomain 8)
)
Pstream initialized with:
    floatTransfer      : 0
    nProcsSimpleSum    : 0
    commsType          : nonBlocking
    polling iterations : 0
trapFpe: Floating point exception trapping enabled (FOAM_SIGFPE).
fileModificationChecking : Monitoring run-time modified files using timeStampMaster (fileModificationSkew 5, maxFileModificationPolls 20)
allowSystemOperations : Allowing user-supplied system call operations

// * * * * * * * * * * * * * * * * * * * * * * * * * * * * * * * * * * * * * //
Create time

Create mesh for time = 0


PISO: Operating solver in PISO mode

Reading transportProperties

Reading field p

Reading field U

Reading/calculating face flux field phi


Starting time loop

Time = 0.001

Courant Number mean: 0 max: 0
DILUPBiCGStab:  Solving for Ux, Initial residual = 1, Final residual = 0.00976191, No Iterations 5
DILUPBiCGStab:  Solving for Uy:  solution singularity
DILUPBiCGStab:  Solving for Uz:  solution singularity
[OGL LOG][Proc: 0]global_index_init : 56 mu s
[OGL LOG][Proc: 0]global_index_init : 2 mu s
[OGL LOG][Proc: 0]global_index_init : 1 mu s
[OGL LOG][Proc: 0]global_index_init : 1 mu s
[OGL LOG][Proc: 0]init_host_sparsity_pattern : 591309 mu s
[OGL LOG][Proc: 0]update_host_matrix_data : 5246 mu s
[OGL LOG][Proc: 0]convert_coo_to_csr : 997 mu s
[OGL LOG][Proc: 0]gather_initGuess : 4352 mu s
[OGL LOG][Proc: 0]gather_RHS : 1885 mu s
[OGL LOG][Proc: 0]gather_global_matrix : 4 mu s
[OGL LOG][Proc: 0]init_precond : 64521 mu s
[OGL LOG][Proc: 0]generate_solver : 7 mu s
[OGL LOG][Proc: 0]solve : 1220773 mu s
[OGL LOG][Proc: 0]retrieve_result_from_device : 2219 mu s
ISAIcudaGKOBiCGStab:  Solving for p, Initial residual = 1, Final residual = 2.57632e-07, No Iterations 1570
time step continuity errors : sum local = 3.53917e-09, global = 6.22381e-21, cumulative = 6.22381e-21
[OGL LOG][Proc: 0]global_index_init : 22 mu s
[OGL LOG][Proc: 0]global_index_init : 2 mu s
[OGL LOG][Proc: 0]global_index_init : 2 mu s
[OGL LOG][Proc: 0]global_index_init : 1 mu s
[OGL LOG][Proc: 0]update_host_matrix_data : 4546 mu s
[OGL LOG][Proc: 0]gather_initGuess : 6 mu s
[OGL LOG][Proc: 0]gather_RHS : 4111 mu s
[OGL LOG][Proc: 0]gather_global_matrix : 0 mu s
read from registry
[OGL LOG][Proc: 0]init_precond : 16 mu s
[OGL LOG][Proc: 0]generate_solver : 1 mu s
[OGL LOG][Proc: 0]solve : 476145 mu s
[OGL LOG][Proc: 0]retrieve_result_from_device : 1727 mu s
ISAIcudaGKOBiCGStab:  Solving for p, Initial residual = 0.777377, Final residual = 3.46071e-07, No Iterations 713
time step continuity errors : sum local = 2.52895e-10, global = 4.33662e-22, cumulative = 6.65747e-21
ExecutionTime = 4.52 s  ClockTime = 4 s

Time = 0.002

Courant Number mean: 0.0555224 max: 0.807219
DILUPBiCGStab:  Solving for Ux, Initial residual = 0.137481, Final residual = 0.00480444, No Iterations 5
DILUPBiCGStab:  Solving for Uy, Initial residual = 0.431367, Final residual = 0.0127824, No Iterations 5
DILUPBiCGStab:  Solving for Uz, Initial residual = 0.97357, Final residual = 0.0274114, No Iterations 5
[OGL LOG][Proc: 0]global_index_init : 351 mu s
[OGL LOG][Proc: 0]global_index_init : 1 mu s
[OGL LOG][Proc: 0]global_index_init : 1 mu s
[OGL LOG][Proc: 0]global_index_init : 1 mu s
[OGL LOG][Proc: 0]update_host_matrix_data : 4304 mu s
[OGL LOG][Proc: 0]gather_initGuess : 3 mu s
[OGL LOG][Proc: 0]gather_RHS : 3785 mu s
[OGL LOG][Proc: 0]gather_global_matrix : 0 mu s
read from registry
[OGL LOG][Proc: 0]init_precond : 8 mu s
[OGL LOG][Proc: 0]generate_solver : 1 mu s
[OGL LOG][Proc: 0]solve : 562126 mu s
[OGL LOG][Proc: 0]retrieve_result_from_device : 1309 mu s
ISAIcudaGKOBiCGStab:  Solving for p, Initial residual = 0.808993, Final residual = 7.71773e-07, No Iterations 840
time step continuity errors : sum local = 8.27455e-10, global = -8.52962e-21, cumulative = -1.87215e-21
[OGL LOG][Proc: 0]global_index_init : 32 mu s
[OGL LOG][Proc: 0]global_index_init : 2 mu s
[OGL LOG][Proc: 0]global_index_init : 1 mu s
[OGL LOG][Proc: 0]global_index_init : 1 mu s
[OGL LOG][Proc: 0]update_host_matrix_data : 3495 mu s
[OGL LOG][Proc: 0]gather_initGuess : 1 mu s
[OGL LOG][Proc: 0]gather_RHS : 2730 mu s
[OGL LOG][Proc: 0]gather_global_matrix : 0 mu s
read from registry
[OGL LOG][Proc: 0]init_precond : 7 mu s
[OGL LOG][Proc: 0]generate_solver : 1 mu s
[OGL LOG][Proc: 0]solve : 497751 mu s
[OGL LOG][Proc: 0]retrieve_result_from_device : 1328 mu s
ISAIcudaGKOBiCGStab:  Solving for p, Initial residual = 0.74964, Final residual = 3.97978e-07, No Iterations 743
time step continuity errors : sum local = 4.82784e-10, global = -4.07225e-21, cumulative = -5.9444e-21
ExecutionTime = 5.82 s  ClockTime = 6 s

Time = 0.003

Courant Number mean: 0.0846038 max: 0.943672
DILUPBiCGStab:  Solving for Ux, Initial residual = 0.0646795, Final residual = 0.00170435, No Iterations 5
DILUPBiCGStab:  Solving for Uy, Initial residual = 0.226339, Final residual = 0.00427101, No Iterations 5
DILUPBiCGStab:  Solving for Uz, Initial residual = 0.765697, Final residual = 0.0189348, No Iterations 5
[OGL LOG][Proc: 0]global_index_init : 38 mu s
[OGL LOG][Proc: 0]global_index_init : 1 mu s
[OGL LOG][Proc: 0]global_index_init : 2 mu s
[OGL LOG][Proc: 0]global_index_init : 1 mu s
[OGL LOG][Proc: 0]update_host_matrix_data : 3538 mu s
[OGL LOG][Proc: 0]gather_initGuess : 1 mu s
[OGL LOG][Proc: 0]gather_RHS : 2645 mu s
[OGL LOG][Proc: 0]gather_global_matrix : 0 mu s
read from registry
[OGL LOG][Proc: 0]init_precond : 7 mu s
[OGL LOG][Proc: 0]generate_solver : 1 mu s
[OGL LOG][Proc: 0]solve : 477493 mu s
[OGL LOG][Proc: 0]retrieve_result_from_device : 1306 mu s
ISAIcudaGKOBiCGStab:  Solving for p, Initial residual = 0.837715, Final residual = 9.80897e-07, No Iterations 711
time step continuity errors : sum local = 1.9196e-09, global = 4.75918e-21, cumulative = -1.18522e-21
[OGL LOG][Proc: 0]global_index_init : 15 mu s
[OGL LOG][Proc: 0]global_index_init : 2 mu s
[OGL LOG][Proc: 0]global_index_init : 2 mu s
[OGL LOG][Proc: 0]global_index_init : 1 mu s
[OGL LOG][Proc: 0]update_host_matrix_data : 3487 mu s
[OGL LOG][Proc: 0]gather_initGuess : 0 mu s
[OGL LOG][Proc: 0]gather_RHS : 2664 mu s
[OGL LOG][Proc: 0]gather_global_matrix : 0 mu s
read from registry
[OGL LOG][Proc: 0]init_precond : 7 mu s
[OGL LOG][Proc: 0]generate_solver : 1 mu s
[OGL LOG][Proc: 0]solve : 451133 mu s
[OGL LOG][Proc: 0]retrieve_result_from_device : 1274 mu s
ISAIcudaGKOBiCGStab:  Solving for p, Initial residual = 0.805106, Final residual = 1.99946e-08, No Iterations 672
time step continuity errors : sum local = 1.93335e-11, global = -1.3044e-21, cumulative = -2.48961e-21
ExecutionTime = 6.98 s  ClockTime = 7 s

End

Finalising parallel run
================================================================================
hash: e221f2aaaf203c97c8d833fd89b8dfc0
/*---------------------------------------------------------------------------*\
| =========                 |                                                 |
| \\      /  F ield         | OpenFOAM: The Open Source CFD Toolbox           |
|  \\    /   O peration     | Version:  2112                                  |
|   \\  /    A nd           | Website:  www.openfoam.com                      |
|    \\/     M anipulation  |                                                 |
\*---------------------------------------------------------------------------*/
Build  : d44c8318f0-20220111 OPENFOAM=2112 version=v2112
Arch   : "LSB;label=32;scalar=64"
Exec   : icoFoam -parallel
Date   : Jan 28 2022
Time   : 22:55:11
Host   : hkn0801.localdomain
PID    : 294750
I/O    : uncollated
Case   : /hkfs/home/project/hk-project-test-fine/eq4036/data/code/ogl_labbook/lidDrivenCavity/resolution/Variation_mesh/400/Variation_matrix_solver/CG_ISAI_CUDA/Variation_mpiRank/8/base
nProcs : 8
Hosts  :
(
    (hkn0801.localdomain 8)
)
Pstream initialized with:
    floatTransfer      : 0
    nProcsSimpleSum    : 0
    commsType          : nonBlocking
    polling iterations : 0
trapFpe: Floating point exception trapping enabled (FOAM_SIGFPE).
fileModificationChecking : Monitoring run-time modified files using timeStampMaster (fileModificationSkew 5, maxFileModificationPolls 20)
allowSystemOperations : Allowing user-supplied system call operations

// * * * * * * * * * * * * * * * * * * * * * * * * * * * * * * * * * * * * * //
Create time

Create mesh for time = 0


PISO: Operating solver in PISO mode

Reading transportProperties

Reading field p

Reading field U

Reading/calculating face flux field phi


Starting time loop

Time = 0.00025

Courant Number mean: 0 max: 0
DILUPBiCGStab:  Solving for Ux, Initial residual = 1, Final residual = 0.0332331, No Iterations 5
DILUPBiCGStab:  Solving for Uy:  solution singularity
DILUPBiCGStab:  Solving for Uz:  solution singularity
[OGL LOG][Proc: 0]global_index_init : 4935 mu s
[OGL LOG][Proc: 0]global_index_init : 2 mu s
[OGL LOG][Proc: 0]global_index_init : 1 mu s
[OGL LOG][Proc: 0]global_index_init : 1 mu s
[OGL LOG][Proc: 0]init_host_sparsity_pattern : 572407238 mu s
[OGL LOG][Proc: 0]update_host_matrix_data : 387207 mu s
[OGL LOG][Proc: 0]convert_coo_to_csr : 16234 mu s
[OGL LOG][Proc: 0]gather_initGuess : 240346 mu s
[OGL LOG][Proc: 0]gather_RHS : 213348 mu s
[OGL LOG][Proc: 0]gather_global_matrix : 0 mu s
[OGL LOG][Proc: 0]init_precond : 5663949 mu s
[OGL LOG][Proc: 0]generate_solver : 16 mu s
[OGL LOG][Proc: 0]solve : 47866986 mu s
[OGL LOG][Proc: 0]retrieve_result_from_device : 190389 mu s
ISAIcudaGKOCG:  Solving for p, Initial residual = 1, Final residual = 9.95602e-07, No Iterations 2894
time step continuity errors : sum local = 5.59371e-11, global = -4.31999e-23, cumulative = -4.31999e-23
[OGL LOG][Proc: 0]global_index_init : 11 mu s
[OGL LOG][Proc: 0]global_index_init : 2 mu s
[OGL LOG][Proc: 0]global_index_init : 1 mu s
[OGL LOG][Proc: 0]global_index_init : 2 mu s
[OGL LOG][Proc: 0]update_host_matrix_data : 332795 mu s
[OGL LOG][Proc: 0]gather_initGuess : 8 mu s
[OGL LOG][Proc: 0]gather_RHS : 213477 mu s
[OGL LOG][Proc: 0]gather_global_matrix : 0 mu s
read from registry
[OGL LOG][Proc: 0]init_precond : 20 mu s
[OGL LOG][Proc: 0]generate_solver : 1 mu s
[OGL LOG][Proc: 0]solve : 48229060 mu s
[OGL LOG][Proc: 0]retrieve_result_from_device : 186636 mu s
ISAIcudaGKOCG:  Solving for p, Initial residual = 0.835498, Final residual = 1.19147e-07, No Iterations 2991
time step continuity errors : sum local = 7.97309e-12, global = -3.47992e-22, cumulative = -3.91192e-22
ExecutionTime = 771.43 s  ClockTime = 775 s

Time = 0.0005

Courant Number mean: 0.0249981 max: 0.903906
DILUPBiCGStab:  Solving for Ux, Initial residual = 0.0981542, Final residual = 0.0224966, No Iterations 5
DILUPBiCGStab:  Solving for Uy, Initial residual = 0.574372, Final residual = 0.12607, No Iterations 5
DILUPBiCGStab:  Solving for Uz, Initial residual = 0.976392, Final residual = 0.24103, No Iterations 5
[OGL LOG][Proc: 0]global_index_init : 5203 mu s
[OGL LOG][Proc: 0]global_index_init : 2 mu s
[OGL LOG][Proc: 0]global_index_init : 2 mu s
[OGL LOG][Proc: 0]global_index_init : 1 mu s
[OGL LOG][Proc: 0]update_host_matrix_data : 332706 mu s
[OGL LOG][Proc: 0]gather_initGuess : 2 mu s
[OGL LOG][Proc: 0]gather_RHS : 216081 mu s
[OGL LOG][Proc: 0]gather_global_matrix : 0 mu s
read from registry
[OGL LOG][Proc: 0]init_precond : 9 mu s
[OGL LOG][Proc: 0]generate_solver : 0 mu s
[OGL LOG][Proc: 0]solve : 44148179 mu s
[OGL LOG][Proc: 0]retrieve_result_from_device : 184018 mu s
ISAIcudaGKOCG:  Solving for p, Initial residual = 0.939412, Final residual = 7.74057e-07, No Iterations 2738
time step continuity errors : sum local = 1.68564e-10, global = 2.88564e-22, cumulative = -1.02628e-22
[OGL LOG][Proc: 0]global_index_init : 5057 mu s
[OGL LOG][Proc: 0]global_index_init : 2 mu s
[OGL LOG][Proc: 0]global_index_init : 2 mu s
[OGL LOG][Proc: 0]global_index_init : 1 mu s
[OGL LOG][Proc: 0]update_host_matrix_data : 332467 mu s
[OGL LOG][Proc: 0]gather_initGuess : 2 mu s
[OGL LOG][Proc: 0]gather_RHS : 214144 mu s
[OGL LOG][Proc: 0]gather_global_matrix : 0 mu s
read from registry
[OGL LOG][Proc: 0]init_precond : 9 mu s
[OGL LOG][Proc: 0]generate_solver : 1 mu s
[OGL LOG][Proc: 0]solve : 45714184 mu s
[OGL LOG][Proc: 0]retrieve_result_from_device : 182606 mu s
ISAIcudaGKOCG:  Solving for p, Initial residual = 0.894577, Final residual = 8.63346e-08, No Iterations 2835
time step continuity errors : sum local = 1.91721e-11, global = -8.71633e-22, cumulative = -9.74261e-22
ExecutionTime = 882.11 s  ClockTime = 886 s

Time = 0.00075

Courant Number mean: 0.0405234 max: 1.11034
DILUPBiCGStab:  Solving for Ux, Initial residual = 0.0634788, Final residual = 0.0117727, No Iterations 5
DILUPBiCGStab:  Solving for Uy, Initial residual = 0.447073, Final residual = 0.0596302, No Iterations 5
DILUPBiCGStab:  Solving for Uz, Initial residual = 0.866448, Final residual = 0.165242, No Iterations 5
[OGL LOG][Proc: 0]global_index_init : 4374 mu s
[OGL LOG][Proc: 0]global_index_init : 2 mu s
[OGL LOG][Proc: 0]global_index_init : 1 mu s
[OGL LOG][Proc: 0]global_index_init : 2 mu s
[OGL LOG][Proc: 0]update_host_matrix_data : 331967 mu s
[OGL LOG][Proc: 0]gather_initGuess : 1 mu s
[OGL LOG][Proc: 0]gather_RHS : 213972 mu s
[OGL LOG][Proc: 0]gather_global_matrix : 0 mu s
read from registry
[OGL LOG][Proc: 0]init_precond : 8 mu s
[OGL LOG][Proc: 0]generate_solver : 1 mu s
[OGL LOG][Proc: 0]solve : 38281518 mu s
[OGL LOG][Proc: 0]retrieve_result_from_device : 182119 mu s
ISAIcudaGKOCG:  Solving for p, Initial residual = 0.970319, Final residual = 4.73742e-07, No Iterations 2374
time step continuity errors : sum local = 1.75491e-10, global = -3.98691e-23, cumulative = -1.01413e-21
[OGL LOG][Proc: 0]global_index_init : 4234 mu s
[OGL LOG][Proc: 0]global_index_init : 2 mu s
[OGL LOG][Proc: 0]global_index_init : 1 mu s
[OGL LOG][Proc: 0]global_index_init : 1 mu s
[OGL LOG][Proc: 0]update_host_matrix_data : 331385 mu s
[OGL LOG][Proc: 0]gather_initGuess : 2 mu s
[OGL LOG][Proc: 0]gather_RHS : 213948 mu s
[OGL LOG][Proc: 0]gather_global_matrix : 0 mu s
read from registry
[OGL LOG][Proc: 0]init_precond : 9 mu s
[OGL LOG][Proc: 0]generate_solver : 0 mu s
[OGL LOG][Proc: 0]solve : 31851023 mu s
[OGL LOG][Proc: 0]retrieve_result_from_device : 183801 mu s
ISAIcudaGKOCG:  Solving for p, Initial residual = 0.933815, Final residual = 5.5401e-07, No Iterations 1975
time step continuity errors : sum local = 2.05987e-10, global = -4.84109e-22, cumulative = -1.49824e-21
ExecutionTime = 973.07 s  ClockTime = 977 s

End

Finalising parallel run
================================================================================
hash: 2c7f47d335081084eb34399d1b0515a3
/*---------------------------------------------------------------------------*\
| =========                 |                                                 |
| \\      /  F ield         | OpenFOAM: The Open Source CFD Toolbox           |
|  \\    /   O peration     | Version:  2112                                  |
|   \\  /    A nd           | Website:  www.openfoam.com                      |
|    \\/     M anipulation  |                                                 |
\*---------------------------------------------------------------------------*/
Build  : d44c8318f0-20220111 OPENFOAM=2112 version=v2112
Arch   : "LSB;label=32;scalar=64"
Exec   : icoFoam -parallel
Date   : Jan 28 2022
Time   : 22:38:38
Host   : hkn0621.localdomain
PID    : 219640
I/O    : uncollated
Case   : /hkfs/home/project/hk-project-test-fine/eq4036/data/code/ogl_labbook/lidDrivenCavity/resolution/Variation_mesh/100/Variation_matrix_solver/BiCGStab_Multigrid_CUDA/Variation_mpiRank/38/base
nProcs : 38
Hosts  :
(
    (hkn0621.localdomain 38)
)
Pstream initialized with:
    floatTransfer      : 0
    nProcsSimpleSum    : 0
    commsType          : nonBlocking
    polling iterations : 0
trapFpe: Floating point exception trapping enabled (FOAM_SIGFPE).
fileModificationChecking : Monitoring run-time modified files using timeStampMaster (fileModificationSkew 5, maxFileModificationPolls 20)
allowSystemOperations : Allowing user-supplied system call operations

// * * * * * * * * * * * * * * * * * * * * * * * * * * * * * * * * * * * * * //
Create time

Create mesh for time = 0


PISO: Operating solver in PISO mode

Reading transportProperties

Reading field p

Reading field U

Reading/calculating face flux field phi


Starting time loop

Time = 0.001

Courant Number mean: 0 max: 0
DILUPBiCGStab:  Solving for Ux, Initial residual = 1, Final residual = 0.0113126, No Iterations 5
DILUPBiCGStab:  Solving for Uy:  solution singularity
DILUPBiCGStab:  Solving for Uz:  solution singularity
[OGL LOG][Proc: 0]global_index_init : 228030 mu s
[OGL LOG][Proc: 0]global_index_init : 13 mu s
[OGL LOG][Proc: 0]global_index_init : 9 mu s
[OGL LOG][Proc: 0]global_index_init : 20 mu s
[OGL LOG][Proc: 0]init_host_sparsity_pattern : 89730 mu s
[OGL LOG][Proc: 0]update_host_matrix_data : 886 mu s
[OGL LOG][Proc: 0]convert_coo_to_csr : 1120 mu s
[OGL LOG][Proc: 0]gather_initGuess : 4431 mu s
[OGL LOG][Proc: 0]gather_RHS : 2319 mu s
[OGL LOG][Proc: 0]gather_global_matrix : 4 mu s
[OGL LOG][Proc: 0]init_precond : 177638 mu s
[OGL LOG][Proc: 0]generate_solver : 3 mu s
[OGL LOG][Proc: 0]solve : 370071079 mu s
[OGL LOG][Proc: 0]retrieve_result_from_device : 4070 mu s
MultigridcudaGKOBiCGStab:  Solving for p, Initial residual = 1, Final residual = 0.00128417, No Iterations 10000
time step continuity errors : sum local = 1.51127e-06, global = 7.41154e-22, cumulative = 7.41154e-22
[OGL LOG][Proc: 0]global_index_init : 132 mu s
[OGL LOG][Proc: 0]global_index_init : 7 mu s
[OGL LOG][Proc: 0]global_index_init : 11 mu s
[OGL LOG][Proc: 0]global_index_init : 11 mu s
[OGL LOG][Proc: 0]update_host_matrix_data : 1229 mu s
[OGL LOG][Proc: 0]gather_initGuess : 7 mu s
[OGL LOG][Proc: 0]gather_RHS : 3880 mu s
[OGL LOG][Proc: 0]gather_global_matrix : 0 mu s
read from registry
[OGL LOG][Proc: 0]init_precond : 16 mu s
[OGL LOG][Proc: 0]generate_solver : 1 mu s
[OGL LOG][Proc: 0]solve : 368277262 mu s
[OGL LOG][Proc: 0]retrieve_result_from_device : 3685 mu s
MultigridcudaGKOBiCGStab:  Solving for p, Initial residual = 0.780615, Final residual = 1.09158e-05, No Iterations 10000
time step continuity errors : sum local = 1.50774e-08, global = -1.6755e-20, cumulative = -1.60138e-20
ExecutionTime = 737.59 s  ClockTime = 746 s

Time = 0.002

Courant Number mean: 0.055234 max: 0.807695
DILUPBiCGStab:  Solving for Ux, Initial residual = 0.13823, Final residual = 0.00613978, No Iterations 5
DILUPBiCGStab:  Solving for Uy, Initial residual = 0.432992, Final residual = 0.0174956, No Iterations 5
DILUPBiCGStab:  Solving for Uz, Initial residual = 0.960946, Final residual = 0.0536726, No Iterations 5
[OGL LOG][Proc: 0]global_index_init : 45 mu s
[OGL LOG][Proc: 0]global_index_init : 9 mu s
[OGL LOG][Proc: 0]global_index_init : 10 mu s
[OGL LOG][Proc: 0]global_index_init : 15 mu s
[OGL LOG][Proc: 0]update_host_matrix_data : 1222 mu s
[OGL LOG][Proc: 0]gather_initGuess : 2 mu s
[OGL LOG][Proc: 0]gather_RHS : 3319 mu s
[OGL LOG][Proc: 0]gather_global_matrix : 0 mu s
read from registry
[OGL LOG][Proc: 0]init_precond : 7 mu s
[OGL LOG][Proc: 0]generate_solver : 0 mu s
[OGL LOG][Proc: 0]solve : 368279522 mu s
[OGL LOG][Proc: 0]retrieve_result_from_device : 3439 mu s
MultigridcudaGKOBiCGStab:  Solving for p, Initial residual = 0.825067, Final residual = 0.00248035, No Iterations 10000
time step continuity errors : sum local = 5.15855e-06, global = -3.99164e-20, cumulative = -5.59302e-20
[OGL LOG][Proc: 0]global_index_init : 40 mu s
[OGL LOG][Proc: 0]global_index_init : 7 mu s
[OGL LOG][Proc: 0]global_index_init : 10 mu s
[OGL LOG][Proc: 0]global_index_init : 18 mu s
[OGL LOG][Proc: 0]update_host_matrix_data : 1224 mu s
[OGL LOG][Proc: 0]gather_initGuess : 3 mu s
[OGL LOG][Proc: 0]gather_RHS : 3292 mu s
[OGL LOG][Proc: 0]gather_global_matrix : 0 mu s
read from registry
[OGL LOG][Proc: 0]init_precond : 8 mu s
[OGL LOG][Proc: 0]generate_solver : 1 mu s
[OGL LOG][Proc: 0]solve : 368248964 mu s
[OGL LOG][Proc: 0]retrieve_result_from_device : 2170 mu s
MultigridcudaGKOBiCGStab:  Solving for p, Initial residual = 0.763169, Final residual = 0.000431645, No Iterations 10000
time step continuity errors : sum local = 9.8976e-07, global = -2.42728e-20, cumulative = -8.0203e-20
ExecutionTime = 1469.04 s  ClockTime = 1482 s

Time = 0.003

Courant Number mean: 0.0842498 max: 0.944167
DILUPBiCGStab:  Solving for Ux, Initial residual = 0.0652394, Final residual = 0.0021523, No Iterations 5
DILUPBiCGStab:  Solving for Uy, Initial residual = 0.247024, Final residual = 0.00814455, No Iterations 5
DILUPBiCGStab:  Solving for Uz, Initial residual = 0.820955, Final residual = 0.0514686, No Iterations 5
[OGL LOG][Proc: 0]global_index_init : 48 mu s
[OGL LOG][Proc: 0]global_index_init : 12 mu s
[OGL LOG][Proc: 0]global_index_init : 8 mu s
[OGL LOG][Proc: 0]global_index_init : 9 mu s
[OGL LOG][Proc: 0]update_host_matrix_data : 1219 mu s
[OGL LOG][Proc: 0]gather_initGuess : 2 mu s
[OGL LOG][Proc: 0]gather_RHS : 3282 mu s
[OGL LOG][Proc: 0]gather_global_matrix : 0 mu s
read from registry
[OGL LOG][Proc: 0]init_precond : 8 mu s
[OGL LOG][Proc: 0]generate_solver : 0 mu s
[OGL LOG][Proc: 0]solve : 368186901 mu s
[OGL LOG][Proc: 0]retrieve_result_from_device : 1847 mu s
MultigridcudaGKOBiCGStab:  Solving for p, Initial residual = 0.859575, Final residual = 7.29456e+44, No Iterations 10000
time step continuity errors : sum local = 1.52391e+42, global = 5.41599e+27, cumulative = 5.41599e+27
[OGL LOG][Proc: 0]global_index_init : 41 mu s
[OGL LOG][Proc: 0]global_index_init : 7 mu s
[OGL LOG][Proc: 0]global_index_init : 7 mu s
[OGL LOG][Proc: 0]global_index_init : 8 mu s
[OGL LOG][Proc: 0]update_host_matrix_data : 1210 mu s
[OGL LOG][Proc: 0]gather_initGuess : 3 mu s
[OGL LOG][Proc: 0]gather_RHS : 3206 mu s
[OGL LOG][Proc: 0]gather_global_matrix : 0 mu s
read from registry
[OGL LOG][Proc: 0]init_precond : 9 mu s
[OGL LOG][Proc: 0]generate_solver : 1 mu s
[OGL LOG][Proc: 0]solve : 368252091 mu s
[OGL LOG][Proc: 0]retrieve_result_from_device : 1804 mu s
MultigridcudaGKOBiCGStab:  Solving for p, Initial residual = 0.504786, Final residual = 0.176341, No Iterations 10000
time step continuity errors : sum local = 1.59633e+42, global = -5.80284e+27, cumulative = -3.86856e+26
ExecutionTime = 2200.48 s  ClockTime = 2219 s

End

Finalising parallel run
================================================================================
hash: 0174d2c385550c5772b57806490644d3
/*---------------------------------------------------------------------------*\
| =========                 |                                                 |
| \\      /  F ield         | OpenFOAM: The Open Source CFD Toolbox           |
|  \\    /   O peration     | Version:  2112                                  |
|   \\  /    A nd           | Website:  www.openfoam.com                      |
|    \\/     M anipulation  |                                                 |
\*---------------------------------------------------------------------------*/
Build  : d44c8318f0-20220111 OPENFOAM=2112 version=v2112
Arch   : "LSB;label=32;scalar=64"
Exec   : icoFoam -parallel
Date   : Jan 28 2022
Time   : 23:11:31
Host   : hkn0801.localdomain
PID    : 296316
I/O    : uncollated
Case   : /hkfs/home/project/hk-project-test-fine/eq4036/data/code/ogl_labbook/lidDrivenCavity/resolution/Variation_mesh/400/Variation_matrix_solver/BiCGStab_NoPrecond_CUDA/Variation_mpiRank/8/base
nProcs : 8
Hosts  :
(
    (hkn0801.localdomain 8)
)
Pstream initialized with:
    floatTransfer      : 0
    nProcsSimpleSum    : 0
    commsType          : nonBlocking
    polling iterations : 0
trapFpe: Floating point exception trapping enabled (FOAM_SIGFPE).
fileModificationChecking : Monitoring run-time modified files using timeStampMaster (fileModificationSkew 5, maxFileModificationPolls 20)
allowSystemOperations : Allowing user-supplied system call operations

// * * * * * * * * * * * * * * * * * * * * * * * * * * * * * * * * * * * * * //
Create time

Create mesh for time = 0


PISO: Operating solver in PISO mode

Reading transportProperties

Reading field p

Reading field U

Reading/calculating face flux field phi


Starting time loop

Time = 0.00025

Courant Number mean: 0 max: 0
DILUPBiCGStab:  Solving for Ux, Initial residual = 1, Final residual = 0.0332331, No Iterations 5
DILUPBiCGStab:  Solving for Uy:  solution singularity
DILUPBiCGStab:  Solving for Uz:  solution singularity
[OGL LOG][Proc: 0]global_index_init : 31 mu s
[...]
time step continuity errors : sum local = 5.00631e-12, global = 1.09692e-21, cumulative = 3.86333e-21
ExecutionTime = 204.41 s  ClockTime = 206 s

Time = 0.000666667

Courant Number mean: 0.0305465 max: 0.890858
DILUPBiCGStab:  Solving for Ux, Initial residual = 0.106029, Final residual = 0.0187003, No Iterations 5
DILUPBiCGStab:  Solving for Uy, Initial residual = 0.546324, Final residual = 0.0883789, No Iterations 5
DILUPBiCGStab:  Solving for Uz, Initial residual = 0.963977, Final residual = 0.176993, No Iterations 5
[OGL LOG][Proc: 0]global_index_init : 11 mu s
[OGL LOG][Proc: 0]global_index_init : 1 mu s
[OGL LOG][Proc: 0]global_index_init : 2 mu s
[OGL LOG][Proc: 0]global_index_init : 1 mu s
[OGL LOG][Proc: 0]update_host_matrix_data : 142948 mu s
[OGL LOG][Proc: 0]gather_initGuess : 2 mu s
[OGL LOG][Proc: 0]gather_RHS : 93847 mu s
[OGL LOG][Proc: 0]gather_global_matrix : 0 mu s
read from registry
[OGL LOG][Proc: 0]init_precond : 11 mu s
[OGL LOG][Proc: 0]generate_solver : 0 mu s
[OGL LOG][Proc: 0]solve : 13616607 mu s
[OGL LOG][Proc: 0]retrieve_result_from_device : 78306 mu s
ISAIcudaGKOCG:  Solving for p, Initial residual = 0.926023, Final residual = 2.1857e-08, No Iterations 1976
time step continuity errors : sum local = 6.92362e-12, global = -6.88806e-22, cumulative = 3.17452e-21
[OGL LOG][Proc: 0]global_index_init : 11 mu s
[OGL LOG][Proc: 0]global_index_init : 1 mu s
[OGL LOG][Proc: 0]global_index_init : 2 mu s
[OGL LOG][Proc: 0]global_index_init : 1 mu s
[OGL LOG][Proc: 0]update_host_matrix_data : 129042 mu s
[OGL LOG][Proc: 0]gather_initGuess : 1 mu s
[OGL LOG][Proc: 0]gather_RHS : 93617 mu s
[OGL LOG][Proc: 0]gather_global_matrix : 0 mu s
read from registry
[OGL LOG][Proc: 0]init_precond : 9 mu s
[OGL LOG][Proc: 0]generate_solver : 0 mu s
[OGL LOG][Proc: 0]solve : 13607726 mu s
[OGL LOG][Proc: 0]retrieve_result_from_device : 75458 mu s
ISAIcudaGKOCG:  Solving for p, Initial residual = 0.879205, Final residual = 2.19335e-08, No Iterations 1976
time step continuity errors : sum local = 7.08494e-12, global = 5.8181e-22, cumulative = 3.75633e-21
ExecutionTime = 240.35 s  ClockTime = 241 s

Time = 0.001

Courant Number mean: 0.0488089 max: 1.07263
DILUPBiCGStab:  Solving for Ux, Initial residual = 0.0665545, Final residual = 0.00905678, No Iterations 5
DILUPBiCGStab:  Solving for Uy, Initial residual = 0.417099, Final residual = 0.0410158, No Iterations 5
DILUPBiCGStab:  Solving for Uz, Initial residual = 0.846607, Final residual = 0.12139, No Iterations 5
[OGL LOG][Proc: 0]global_index_init : 11 mu s
[OGL LOG][Proc: 0]global_index_init : 1 mu s
[OGL LOG][Proc: 0]global_index_init : 1 mu s
[OGL LOG][Proc: 0]global_index_init : 1 mu s
[OGL LOG][Proc: 0]update_host_matrix_data : 142969 mu s
[OGL LOG][Proc: 0]gather_initGuess : 1 mu s
[OGL LOG][Proc: 0]gather_RHS : 97725 mu s
[OGL LOG][Proc: 0]gather_global_matrix : 0 mu s
read from registry
[OGL LOG][Proc: 0]init_precond : 10 mu s
[OGL LOG][Proc: 0]generate_solver : 1 mu s
[OGL LOG][Proc: 0]solve : 10897066 mu s
[OGL LOG][Proc: 0]retrieve_result_from_device : 75285 mu s
ISAIcudaGKOCG:  Solving for p, Initial residual = 0.960855, Final residual = 4.05159e-07, No Iterations 1581
time step continuity errors : sum local = 1.97233e-10, global = -1.06217e-21, cumulative = 2.69416e-21
[OGL LOG][Proc: 0]global_index_init : 49 mu s
[OGL LOG][Proc: 0]global_index_init : 1 mu s
[OGL LOG][Proc: 0]global_index_init : 2 mu s
[OGL LOG][Proc: 0]global_index_init : 1 mu s
[OGL LOG][Proc: 0]update_host_matrix_data : 128611 mu s
[OGL LOG][Proc: 0]gather_initGuess : 1 mu s
[OGL LOG][Proc: 0]gather_RHS : 97450 mu s
[OGL LOG][Proc: 0]gather_global_matrix : 0 mu s
read from registry
[OGL LOG][Proc: 0]init_precond : 9 mu s
[OGL LOG][Proc: 0]generate_solver : 1 mu s
[OGL LOG][Proc: 0]solve : 9121625 mu s
[OGL LOG][Proc: 0]retrieve_result_from_device : 75436 mu s
ISAIcudaGKOCG:  Solving for p, Initial residual = 0.925757, Final residual = 8.51833e-07, No Iterations 1324
time step continuity errors : sum local = 4.14565e-10, global = -2.14369e-21, cumulative = 5.50466e-22
ExecutionTime = 269.09 s  ClockTime = 270 s

End

Finalising parallel run
================================================================================
hash: b7b6b823c0766c9681ea93475e55ccb9
/*---------------------------------------------------------------------------*\
| =========                 |                                                 |
| \\      /  F ield         | OpenFOAM: The Open Source CFD Toolbox           |
|  \\    /   O peration     | Version:  2112                                  |
|   \\  /    A nd           | Website:  www.openfoam.com                      |
|    \\/     M anipulation  |                                                 |
\*---------------------------------------------------------------------------*/
Build  : d44c8318f0-20220111 OPENFOAM=2112 version=v2112
Arch   : "LSB;label=32;scalar=64"
Exec   : icoFoam -parallel
Date   : Jan 29 2022
Time   : 08:04:52
Host   : hkn0425.localdomain
PID    : 2114477
I/O    : uncollated
Case   : /hkfs/home/project/hk-project-test-fine/eq4036/data/code/ogl_labbook/lidDrivenCavity/resolution/Variation_mesh/300/Variation_matrix_solver/BiCGStab_NoPrecond_CUDA/Variation_mpiRank/8/base
nProcs : 8
Hosts  :
(
    (hkn0425.localdomain 8)
)
Pstream initialized with:
    floatTransfer      : 0
    nProcsSimpleSum    : 0
    commsType          : nonBlocking
    polling iterations : 0
trapFpe: Floating point exception trapping enabled (FOAM_SIGFPE).
fileModificationChecking : Monitoring run-time modified files using timeStampMaster (fileModificationSkew 5, maxFileModificationPolls 20)
allowSystemOperations : Allowing user-supplied system call operations

// * * * * * * * * * * * * * * * * * * * * * * * * * * * * * * * * * * * * * //
Create time

Create mesh for time = 0


PISO: Operating solver in PISO mode

Reading transportProperties

Reading field p

Reading field U

Reading/calculating face flux field phi


Starting time loop

Time = 0.000333333

Courant Number mean: 0 max: 0
DILUPBiCGStab:  Solving for Ux, Initial residual = 1, Final residual = 0.0285744, No Iterations 5
DILUPBiCGStab:  Solving for Uy:  solution singularity
DILUPBiCGStab:  Solving for Uz:  solution singularity
[OGL LOG][Proc: 0]global_index_init : 1343 mu s
[OGL LOG][Proc: 0]global_index_init : 2 mu s
[OGL LOG][Proc: 0]global_index_init : 1 mu s
[OGL LOG][Proc: 0]global_index_init : 1 mu s
[OGL LOG][Proc: 0]init_host_sparsity_pattern : 122567667 mu s
[OGL LOG][Proc: 0]update_host_matrix_data : 171853 mu s
[OGL LOG][Proc: 0]convert_coo_to_csr : 7073 mu s
[OGL LOG][Proc: 0]gather_initGuess : 106685 mu s
[OGL LOG][Proc: 0]gather_RHS : 92605 mu s
[OGL LOG][Proc: 0]gather_global_matrix : 5 mu s
[OGL LOG][Proc: 0]init_precond : 60 mu s
[OGL LOG][Proc: 0]generate_solver : 17 mu s
[OGL LOG][Proc: 0]solve : 20092801 mu s
[OGL LOG][Proc: 0]retrieve_result_from_device : 80343 mu s
nonecudaGKOBiCGStab:  Solving for p, Initial residual = 1, Final residual = 8.23174e-07, No Iterations 2177
time step continuity errors : sum local = 0.000451115, global = -4.74564e-18, cumulative = -4.74564e-18
[OGL LOG][Proc: 0]global_index_init : 179 mu s
[OGL LOG][Proc: 0]global_index_init : 2 mu s
[OGL LOG][Proc: 0]global_index_init : 2 mu s
[OGL LOG][Proc: 0]global_index_init : 1 mu s
[OGL LOG][Proc: 0]update_host_matrix_data : 133284 mu s
[OGL LOG][Proc: 0]gather_initGuess : 8 mu s
[OGL LOG][Proc: 0]gather_RHS : 93832 mu s
[OGL LOG][Proc: 0]gather_global_matrix : 0 mu s
read from registry
[OGL LOG][Proc: 0]init_precond : 20 mu s
[OGL LOG][Proc: 0]generate_solver : 1 mu s
[OGL LOG][Proc: 0]solve : 22240865 mu s
[OGL LOG][Proc: 0]retrieve_result_from_device : 80373 mu s
nonecudaGKOBiCGStab:  Solving for p, Initial residual = 0.97113, Final residual = 6.24643e-07, No Iterations 2523
time step continuity errors : sum local = 5.38453e-10, global = -2.17635e-21, cumulative = -4.74782e-18
ExecutionTime = 217.73 s  ClockTime = 219 s

Time = 0.000666667

Courant Number mean: 0.0305582 max: 0.890858
DILUPBiCGStab:  Solving for Ux, Initial residual = 0.113581, Final residual = 0.0224469, No Iterations 5
DILUPBiCGStab:  Solving for Uy, Initial residual = 0.566853, Final residual = 0.114648, No Iterations 5
DILUPBiCGStab:  Solving for Uz, Initial residual = 0.882472, Final residual = 0.179626, No Iterations 5
[OGL LOG][Proc: 0]global_index_init : 132 mu s
[OGL LOG][Proc: 0]global_index_init : 1 mu s
[OGL LOG][Proc: 0]global_index_init : 2 mu s
[OGL LOG][Proc: 0]global_index_init : 1 mu s
[OGL LOG][Proc: 0]update_host_matrix_data : 143503 mu s
[OGL LOG][Proc: 0]gather_initGuess : 1 mu s
[OGL LOG][Proc: 0]gather_RHS : 94109 mu s
[OGL LOG][Proc: 0]gather_global_matrix : 0 mu s
read from registry
[OGL LOG][Proc: 0]init_precond : 9 mu s
[OGL LOG][Proc: 0]generate_solver : 1 mu s
[OGL LOG][Proc: 0]solve : 19399972 mu s
[OGL LOG][Proc: 0]retrieve_result_from_device : 81794 mu s
nonecudaGKOBiCGStab:  Solving for p, Initial residual = 0.991594, Final residual = 6.9394e-07, No Iterations 2200
time step continuity errors : sum local = 3.33949e-09, global = -1.93919e-21, cumulative = -4.74976e-18
[OGL LOG][Proc: 0]global_index_init : 119 mu s
[OGL LOG][Proc: 0]global_index_init : 1 mu s
[OGL LOG][Proc: 0]global_index_init : 2 mu s
[OGL LOG][Proc: 0]global_index_init : 1 mu s
[OGL LOG][Proc: 0]update_host_matrix_data : 129132 mu s
[OGL LOG][Proc: 0]gather_initGuess : 4 mu s
[OGL LOG][Proc: 0]gather_RHS : 94159 mu s
[OGL LOG][Proc: 0]gather_global_matrix : 0 mu s
read from registry
[OGL LOG][Proc: 0]init_precond : 13 mu s
[OGL LOG][Proc: 0]generate_solver : 2 mu s
[OGL LOG][Proc: 0]solve : 24819989 mu s
[OGL LOG][Proc: 0]retrieve_result_from_device : 82356 mu s
nonecudaGKOBiCGStab:  Solving for p, Initial residual = 0.932588, Final residual = 7.90089e-07, No Iterations 2816
time step continuity errors : sum local = 3.58738e-09, global = 3.77746e-23, cumulative = -4.74972e-18
ExecutionTime = 270.66 s  ClockTime = 272 s

Time = 0.001

Courant Number mean: 0.0515369 max: 1.07619
DILUPBiCGStab:  Solving for Ux, Initial residual = 0.0884949, Final residual = 0.0126441, No Iterations 5
DILUPBiCGStab:  Solving for Uy, Initial residual = 0.513588, Final residual = 0.0606758, No Iterations 5
DILUPBiCGStab:  Solving for Uz, Initial residual = 0.872789, Final residual = 0.0983429, No Iterations 5
[OGL LOG][Proc: 0]global_index_init : 17 mu s
[OGL LOG][Proc: 0]global_index_init : 1 mu s
[OGL LOG][Proc: 0]global_index_init : 1 mu s
[OGL LOG][Proc: 0]global_index_init : 1 mu s
[OGL LOG][Proc: 0]update_host_matrix_data : 143368 mu s
[OGL LOG][Proc: 0]gather_initGuess : 1 mu s
[OGL LOG][Proc: 0]gather_RHS : 94344 mu s
[OGL LOG][Proc: 0]gather_global_matrix : 0 mu s
read from registry
[OGL LOG][Proc: 0]init_precond : 9 mu s
[OGL LOG][Proc: 0]generate_solver : 1 mu s
[OGL LOG][Proc: 0]solve : 21227608 mu s
[OGL LOG][Proc: 0]retrieve_result_from_device : 78814 mu s
nonecudaGKOBiCGStab:  Solving for p, Initial residual = 0.989783, Final residual = 2.81045e-07, No Iterations 2408
time step continuity errors : sum local = 1.46576e-09, global = 5.42579e-22, cumulative = -4.74918e-18
[OGL LOG][Proc: 0]global_index_init : 97 mu s
[OGL LOG][Proc: 0]global_index_init : 1 mu s
[OGL LOG][Proc: 0]global_index_init : 1 mu s
[OGL LOG][Proc: 0]global_index_init : 1 mu s
[OGL LOG][Proc: 0]update_host_matrix_data : 136875 mu s
[OGL LOG][Proc: 0]gather_initGuess : 2 mu s
[OGL LOG][Proc: 0]gather_RHS : 94079 mu s
[OGL LOG][Proc: 0]gather_global_matrix : 0 mu s
read from registry
[OGL LOG][Proc: 0]init_precond : 12 mu s
[OGL LOG][Proc: 0]generate_solver : 1 mu s
[OGL LOG][Proc: 0]solve : 24113436 mu s
[OGL LOG][Proc: 0]retrieve_result_from_device : 82095 mu s
nonecudaGKOBiCGStab:  Solving for p, Initial residual = 0.929016, Final residual = 1.50354e-07, No Iterations 2736
time step continuity errors : sum local = 6.54084e-10, global = -2.13354e-21, cumulative = -4.75131e-18
ExecutionTime = 324.78 s  ClockTime = 326 s

End

Finalising parallel run
================================================================================
hash: 11ca03885dc0fcf06081b0dd0b4d3eab
/*---------------------------------------------------------------------------*\
| =========                 |                                                 |
| \\      /  F ield         | OpenFOAM: The Open Source CFD Toolbox           |
|  \\    /   O peration     | Version:  2112                                  |
|   \\  /    A nd           | Website:  www.openfoam.com                      |
|    \\/     M anipulation  |                                                 |
\*---------------------------------------------------------------------------*/
Build  : d44c8318f0-20220111 OPENFOAM=2112 version=v2112
Arch   : "LSB;label=32;scalar=64"
Exec   : icoFoam -parallel
Date   : Jan 29 2022
Time   : 08:10:20
Host   : hkn0425.localdomain
PID    : 2115120
I/O    : uncollated
Case   : /hkfs/home/project/hk-project-test-fine/eq4036/data/code/ogl_labbook/lidDrivenCavity/resolution/Variation_mesh/300/Variation_matrix_solver/CG_NoPrecond_CUDA/Variation_mpiRank/8/base
nProcs : 8
Hosts  :
(
    (hkn0425.localdomain 8)
)
Pstream initialized with:
    floatTransfer      : 0
    nProcsSimpleSum    : 0
    commsType          : nonBlocking
    polling iterations : 0
trapFpe: Floating point exception trapping enabled (FOAM_SIGFPE).
fileModificationChecking : Monitoring run-time modified files using timeStampMaster (fileModificationSkew 5, maxFileModificationPolls 20)
allowSystemOperations : Allowing user-supplied system call operations

// * * * * * * * * * * * * * * * * * * * * * * * * * * * * * * * * * * * * * //
Create time

Create mesh for time = 0


PISO: Operating solver in PISO mode

Reading transportProperties

Reading field p

Reading field U

Reading/calculating face flux field phi


Starting time loop

Time = 0.000333333

Courant Number mean: 0 max: 0
DILUPBiCGStab:  Solving for Ux, Initial residual = 1, Final residual = 0.0285744, No Iterations 5
DILUPBiCGStab:  Solving for Uy:  solution singularity
DILUPBiCGStab:  Solving for Uz:  solution singularity
[OGL LOG][Proc: 0]global_index_init : 4481 mu s
[OGL LOG][Proc: 0]global_index_init : 2 mu s
[OGL LOG][Proc: 0]global_index_init : 1 mu s
[OGL LOG][Proc: 0]global_index_init : 2 mu s
[OGL LOG][Proc: 0]init_host_sparsity_pattern : 122426453 mu s
[OGL LOG][Proc: 0]update_host_matrix_data : 173802 mu s
[OGL LOG][Proc: 0]convert_coo_to_csr : 7450 mu s
[OGL LOG][Proc: 0]gather_initGuess : 110294 mu s
[OGL LOG][Proc: 0]gather_RHS : 92876 mu s
[OGL LOG][Proc: 0]gather_global_matrix : 0 mu s
[OGL LOG][Proc: 0]init_precond : 59 mu s
[OGL LOG][Proc: 0]generate_solver : 23752 mu s
[OGL LOG][Proc: 0]solve : 13200759 mu s
[OGL LOG][Proc: 0]retrieve_result_from_device : 78863 mu s
nonecudaGKOCG:  Solving for p, Initial residual = 1, Final residual = 9.82416e-07, No Iterations 2637
time step continuity errors : sum local = 9.27754e-11, global = 3.51101e-21, cumulative = 3.51101e-21
[OGL LOG][Proc: 0]global_index_init : 10 mu s
[OGL LOG][Proc: 0]global_index_init : 2 mu s
[OGL LOG][Proc: 0]global_index_init : 2 mu s
[OGL LOG][Proc: 0]global_index_init : 1 mu s
[OGL LOG][Proc: 0]update_host_matrix_data : 133169 mu s
[OGL LOG][Proc: 0]gather_initGuess : 7 mu s
[OGL LOG][Proc: 0]gather_RHS : 93876 mu s
[OGL LOG][Proc: 0]gather_global_matrix : 0 mu s
read from registry
[OGL LOG][Proc: 0]init_precond : 19 mu s
[OGL LOG][Proc: 0]generate_solver : 1 mu s
[OGL LOG][Proc: 0]solve : 12604364 mu s
[OGL LOG][Proc: 0]retrieve_result_from_device : 78879 mu s
nonecudaGKOCG:  Solving for p, Initial residual = 0.827887, Final residual = 9.70044e-07, No Iterations 2626
time step continuity errors : sum local = 1.09914e-10, global = -7.67506e-22, cumulative = 2.7435e-21
ExecutionTime = 201.32 s  ClockTime = 202 s

Time = 0.000666667

Courant Number mean: 0.0305465 max: 0.890858
DILUPBiCGStab:  Solving for Ux, Initial residual = 0.106029, Final residual = 0.0187003, No Iterations 5
DILUPBiCGStab:  Solving for Uy, Initial residual = 0.546324, Final residual = 0.0883789, No Iterations 5
DILUPBiCGStab:  Solving for Uz, Initial residual = 0.963977, Final residual = 0.176992, No Iterations 5
[OGL LOG][Proc: 0]global_index_init : 103 mu s
[OGL LOG][Proc: 0]global_index_init : 2 mu s
[OGL LOG][Proc: 0]global_index_init : 2 mu s
[OGL LOG][Proc: 0]global_index_init : 1 mu s
[OGL LOG][Proc: 0]update_host_matrix_data : 142996 mu s
[OGL LOG][Proc: 0]gather_initGuess : 2 mu s
[OGL LOG][Proc: 0]gather_RHS : 93841 mu s
[OGL LOG][Proc: 0]gather_global_matrix : 0 mu s
read from registry
[OGL LOG][Proc: 0]init_precond : 11 mu s
[OGL LOG][Proc: 0]generate_solver : 1 mu s
[OGL LOG][Proc: 0]solve : 12606597 mu s
[OGL LOG][Proc: 0]retrieve_result_from_device : 80798 mu s
nonecudaGKOCG:  Solving for p, Initial residual = 0.926023, Final residual = 4.85053e-07, No Iterations 2626
time step continuity errors : sum local = 1.5363e-10, global = -1.85559e-21, cumulative = 8.87915e-22
[OGL LOG][Proc: 0]global_index_init : 38 mu s
[OGL LOG][Proc: 0]global_index_init : 1 mu s
[OGL LOG][Proc: 0]global_index_init : 2 mu s
[OGL LOG][Proc: 0]global_index_init : 1 mu s
[OGL LOG][Proc: 0]update_host_matrix_data : 129290 mu s
[OGL LOG][Proc: 0]gather_initGuess : 1 mu s
[OGL LOG][Proc: 0]gather_RHS : 93642 mu s
[OGL LOG][Proc: 0]gather_global_matrix : 0 mu s
read from registry
[OGL LOG][Proc: 0]init_precond : 8 mu s
[OGL LOG][Proc: 0]generate_solver : 1 mu s
[OGL LOG][Proc: 0]solve : 12604092 mu s
[OGL LOG][Proc: 0]retrieve_result_from_device : 80176 mu s
nonecudaGKOCG:  Solving for p, Initial residual = 0.879205, Final residual = 4.43186e-07, No Iterations 2626
time step continuity errors : sum local = 1.43158e-10, global = -3.59142e-21, cumulative = -2.7035e-21
ExecutionTime = 235.25 s  ClockTime = 236 s

Time = 0.001

Courant Number mean: 0.0488089 max: 1.07263
DILUPBiCGStab:  Solving for Ux, Initial residual = 0.0665545, Final residual = 0.00905679, No Iterations 5
DILUPBiCGStab:  Solving for Uy, Initial residual = 0.417099, Final residual = 0.0410158, No Iterations 5
DILUPBiCGStab:  Solving for Uz, Initial residual = 0.846608, Final residual = 0.12139, No Iterations 5
[OGL LOG][Proc: 0]global_index_init : 13 mu s
[OGL LOG][Proc: 0]global_index_init : 1 mu s
[OGL LOG][Proc: 0]global_index_init : 2 mu s
[OGL LOG][Proc: 0]global_index_init : 1 mu s
[OGL LOG][Proc: 0]update_host_matrix_data : 143423 mu s
[OGL LOG][Proc: 0]gather_initGuess : 2 mu s
[OGL LOG][Proc: 0]gather_RHS : 93750 mu s
[OGL LOG][Proc: 0]gather_global_matrix : 0 mu s
read from registry
[OGL LOG][Proc: 0]init_precond : 8 mu s
[OGL LOG][Proc: 0]generate_solver : 1 mu s
[OGL LOG][Proc: 0]solve : 12609180 mu s
[OGL LOG][Proc: 0]retrieve_result_from_device : 79678 mu s
nonecudaGKOCG:  Solving for p, Initial residual = 0.960855, Final residual = 5.50002e-07, No Iterations 2626
time step continuity errors : sum local = 2.67744e-10, global = -1.9793e-21, cumulative = -4.6828e-21
[OGL LOG][Proc: 0]global_index_init : 150 mu s
[OGL LOG][Proc: 0]global_index_init : 2 mu s
[OGL LOG][Proc: 0]global_index_init : 1 mu s
[OGL LOG][Proc: 0]global_index_init : 1 mu s
[OGL LOG][Proc: 0]update_host_matrix_data : 128933 mu s
[OGL LOG][Proc: 0]gather_initGuess : 1 mu s
[OGL LOG][Proc: 0]gather_RHS : 97383 mu s
[OGL LOG][Proc: 0]gather_global_matrix : 0 mu s
read from registry
[OGL LOG][Proc: 0]init_precond : 8 mu s
[OGL LOG][Proc: 0]generate_solver : 1 mu s
[OGL LOG][Proc: 0]solve : 12602570 mu s
[OGL LOG][Proc: 0]retrieve_result_from_device : 78743 mu s
nonecudaGKOCG:  Solving for p, Initial residual = 0.925757, Final residual = 5.24177e-07, No Iterations 2626
time step continuity errors : sum local = 2.55102e-10, global = -1.10364e-21, cumulative = -5.78644e-21
ExecutionTime = 269.18 s  ClockTime = 270 s

End

Finalising parallel run
================================================================================
