hash: 2c706b4c5d3bb336fe2d052da727796a
/*---------------------------------------------------------------------------*\
| =========                 |                                                 |
| \\      /  F ield         | OpenFOAM: The Open Source CFD Toolbox           |
|  \\    /   O peration     | Version:  2112                                  |
|   \\  /    A nd           | Website:  www.openfoam.com                      |
|    \\/     M anipulation  |                                                 |
\*---------------------------------------------------------------------------*/
Build  : d44c8318f0-20220111 OPENFOAM=2112 version=v2112
Arch   : "LSB;label=32;scalar=64"
Exec   : icoFoam -parallel
Date   : Jan 29 2022
Time   : 14:18:05
Host   : hkn0535.localdomain
PID    : 1767751
I/O    : uncollated
Case   : /hkfs/home/project/hk-project-test-fine/eq4036/data/code/ogl_labbook/lidDrivenCavity/resolution/Variation_mesh/100/Variation_matrix_solver/CG_ISAI_CUDA/Variation_mpiRank/38/base
nProcs : 38
Hosts  :
(
    (hkn0535.localdomain 38)
)
Pstream initialized with:
    floatTransfer      : 0
    nProcsSimpleSum    : 0
    commsType          : nonBlocking
    polling iterations : 0
trapFpe: Floating point exception trapping enabled (FOAM_SIGFPE).
fileModificationChecking : Monitoring run-time modified files using timeStampMaster (fileModificationSkew 5, maxFileModificationPolls 20)
allowSystemOperations : Allowing user-supplied system call operations

// * * * * * * * * * * * * * * * * * * * * * * * * * * * * * * * * * * * * * //
Create time

Create mesh for time = 0


PISO: Operating solver in PISO mode

Reading transportProperties

Reading field p

Reading field U

Reading/calculating face flux field phi


Starting time loop

Time = 0.001

Courant Number mean: 0 max: 0
DILUPBiCGStab:  Solving for Ux, Initial residual = 1, Final residual = 0.0113126, No Iterations 5
DILUPBiCGStab:  Solving for Uy:  solution singularity
DILUPBiCGStab:  Solving for Uz:  solution singularity
linear solve U 18848
[OGL LOG][Proc: 0]global_index_init : 54798 mu s
[OGL LOG][Proc: 0]global_index_init : 13 mu s
[OGL LOG][Proc: 0]global_index_init : 15 mu s
[OGL LOG][Proc: 0]global_index_init : 18 mu s
[OGL LOG][Proc: 0]init_host_sparsity_pattern : 91238 mu s
[OGL LOG][Proc: 0]update_host_matrix_data : 903 mu s
[OGL LOG][Proc: 0]convert_coo_to_csr : 1211 mu s
[OGL LOG][Proc: 0]gather_initGuess : 4615 mu s
[OGL LOG][Proc: 0]gather_RHS : 2538 mu s
[OGL LOG][Proc: 0]gather_global_matrix : 0 mu s
[OGL LOG][Proc: 0]init_precond : 65457 mu s
[OGL LOG][Proc: 0]generate_solver : 13 mu s
[OGL LOG][Proc: 0]solve : 235372 mu s
[OGL LOG][Proc: 0]retrieve_result_from_device : 2188 mu s
ISAIcudaGKOCG:  Solving for p, Initial residual = 1, Final residual = 9.83879e-07, No Iterations 606
linear solve p 7525726
time step continuity errors : sum local = 5.82258e-10, global = -2.94476e-21, cumulative = -2.94476e-21
[OGL LOG][Proc: 0]global_index_init : 62 mu s
[OGL LOG][Proc: 0]global_index_init : 10 mu s
[OGL LOG][Proc: 0]global_index_init : 16 mu s
[OGL LOG][Proc: 0]global_index_init : 15 mu s
[OGL LOG][Proc: 0]update_host_matrix_data : 1037 mu s
[OGL LOG][Proc: 0]gather_initGuess : 4 mu s
[OGL LOG][Proc: 0]gather_RHS : 3764 mu s
[OGL LOG][Proc: 0]gather_global_matrix : 0 mu s
read from registry
[OGL LOG][Proc: 0]init_precond : 16 mu s
[OGL LOG][Proc: 0]generate_solver : 0 mu s
[OGL LOG][Proc: 0]solve : 198076 mu s
[OGL LOG][Proc: 0]retrieve_result_from_device : 2915 mu s
ISAIcudaGKOCG:  Solving for p, Initial residual = 0.777482, Final residual = 9.86435e-07, No Iterations 601
linear solve p 207103
time step continuity errors : sum local = 7.34593e-10, global = -1.4068e-20, cumulative = -1.70128e-20
ExecutionTime = 4.79 s  ClockTime = 9 s

Time = 0.002

Courant Number mean: 0.0552338 max: 0.807703
DILUPBiCGStab:  Solving for Ux, Initial residual = 0.137184, Final residual = 0.00605911, No Iterations 5
DILUPBiCGStab:  Solving for Uy, Initial residual = 0.431634, Final residual = 0.017243, No Iterations 5
DILUPBiCGStab:  Solving for Uz, Initial residual = 0.955192, Final residual = 0.0356001, No Iterations 5
linear solve U 29784
[OGL LOG][Proc: 0]global_index_init : 33 mu s
[OGL LOG][Proc: 0]global_index_init : 11 mu s
[OGL LOG][Proc: 0]global_index_init : 10 mu s
[OGL LOG][Proc: 0]global_index_init : 13 mu s
[OGL LOG][Proc: 0]update_host_matrix_data : 1085 mu s
[OGL LOG][Proc: 0]gather_initGuess : 1 mu s
[OGL LOG][Proc: 0]gather_RHS : 3280 mu s
[OGL LOG][Proc: 0]gather_global_matrix : 0 mu s
read from registry
[OGL LOG][Proc: 0]init_precond : 7 mu s
[OGL LOG][Proc: 0]generate_solver : 1 mu s
[OGL LOG][Proc: 0]solve : 206158 mu s
[OGL LOG][Proc: 0]retrieve_result_from_device : 2914 mu s
ISAIcudaGKOCG:  Solving for p, Initial residual = 0.818388, Final residual = 2.40371e-07, No Iterations 625
linear solve p 214479
time step continuity errors : sum local = 2.71156e-10, global = -3.81724e-22, cumulative = -1.73945e-20
[OGL LOG][Proc: 0]global_index_init : 36 mu s
[OGL LOG][Proc: 0]global_index_init : 7 mu s
[OGL LOG][Proc: 0]global_index_init : 13 mu s
[OGL LOG][Proc: 0]global_index_init : 15 mu s
[OGL LOG][Proc: 0]update_host_matrix_data : 1001 mu s
[OGL LOG][Proc: 0]gather_initGuess : 1 mu s
[OGL LOG][Proc: 0]gather_RHS : 3198 mu s
[OGL LOG][Proc: 0]gather_global_matrix : 0 mu s
read from registry
[OGL LOG][Proc: 0]init_precond : 8 mu s
[OGL LOG][Proc: 0]generate_solver : 1 mu s
[OGL LOG][Proc: 0]solve : 207862 mu s
[OGL LOG][Proc: 0]retrieve_result_from_device : 2537 mu s
ISAIcudaGKOCG:  Solving for p, Initial residual = 0.75826, Final residual = 2.18413e-07, No Iterations 626
linear solve p 215712
time step continuity errors : sum local = 2.51718e-10, global = -1.14545e-20, cumulative = -2.8849e-20
ExecutionTime = 5.28 s  ClockTime = 9 s

Time = 0.003

Courant Number mean: 0.0841485 max: 0.943746
DILUPBiCGStab:  Solving for Ux, Initial residual = 0.0644957, Final residual = 0.00215472, No Iterations 5
DILUPBiCGStab:  Solving for Uy, Initial residual = 0.226245, Final residual = 0.00574234, No Iterations 5
DILUPBiCGStab:  Solving for Uz, Initial residual = 0.730635, Final residual = 0.0239014, No Iterations 5
linear solve U 29385
[OGL LOG][Proc: 0]global_index_init : 23 mu s
[OGL LOG][Proc: 0]global_index_init : 8 mu s
[OGL LOG][Proc: 0]global_index_init : 12 mu s
[OGL LOG][Proc: 0]global_index_init : 14 mu s
[OGL LOG][Proc: 0]update_host_matrix_data : 1185 mu s
[OGL LOG][Proc: 0]gather_initGuess : 2 mu s
[OGL LOG][Proc: 0]gather_RHS : 3257 mu s
[OGL LOG][Proc: 0]gather_global_matrix : 0 mu s
read from registry
[OGL LOG][Proc: 0]init_precond : 7 mu s
[OGL LOG][Proc: 0]generate_solver : 0 mu s
[OGL LOG][Proc: 0]solve : 206222 mu s
[OGL LOG][Proc: 0]retrieve_result_from_device : 1917 mu s
ISAIcudaGKOCG:  Solving for p, Initial residual = 0.84121, Final residual = 6.38608e-08, No Iterations 626
linear solve p 213628
time step continuity errors : sum local = 6.46957e-11, global = -1.48831e-20, cumulative = -4.37321e-20
[OGL LOG][Proc: 0]global_index_init : 31 mu s
[OGL LOG][Proc: 0]global_index_init : 7 mu s
[OGL LOG][Proc: 0]global_index_init : 4 mu s
[OGL LOG][Proc: 0]global_index_init : 10 mu s
[OGL LOG][Proc: 0]update_host_matrix_data : 1119 mu s
[OGL LOG][Proc: 0]gather_initGuess : 1 mu s
[OGL LOG][Proc: 0]gather_RHS : 3260 mu s
[OGL LOG][Proc: 0]gather_global_matrix : 0 mu s
read from registry
[OGL LOG][Proc: 0]init_precond : 8 mu s
[OGL LOG][Proc: 0]generate_solver : 1 mu s
[OGL LOG][Proc: 0]solve : 206113 mu s
[OGL LOG][Proc: 0]retrieve_result_from_device : 1896 mu s
ISAIcudaGKOCG:  Solving for p, Initial residual = 0.807262, Final residual = 6.37644e-08, No Iterations 626
linear solve p 213380
time step continuity errors : sum local = 6.30315e-11, global = -1.79616e-20, cumulative = -6.16937e-20
ExecutionTime = 5.77 s  ClockTime = 10 s

End

Finalising parallel run
================================================================================
hash: a02bfdb88e57ba6c0ee9e4d55ebd1516
/*---------------------------------------------------------------------------*\
| =========                 |                                                 |
| \\      /  F ield         | OpenFOAM: The Open Source CFD Toolbox           |
|  \\    /   O peration     | Version:  2112                                  |
|   \\  /    A nd           | Website:  www.openfoam.com                      |
|    \\/     M anipulation  |                                                 |
\*---------------------------------------------------------------------------*/
Build  : d44c8318f0-20220111 OPENFOAM=2112 version=v2112
Arch   : "LSB;label=32;scalar=64"
Exec   : icoFoam -parallel
Date   : Jan 29 2022
Time   : 14:18:19
Host   : hkn0535.localdomain
PID    : 1768686
I/O    : uncollated
Case   : /hkfs/home/project/hk-project-test-fine/eq4036/data/code/ogl_labbook/lidDrivenCavity/resolution/Variation_mesh/100/Variation_matrix_solver/CG_ISAI_CUDA/Variation_mpiRank/8/base
nProcs : 8
Hosts  :
(
    (hkn0535.localdomain 8)
)
Pstream initialized with:
    floatTransfer      : 0
    nProcsSimpleSum    : 0
    commsType          : nonBlocking
    polling iterations : 0
trapFpe: Floating point exception trapping enabled (FOAM_SIGFPE).
fileModificationChecking : Monitoring run-time modified files using timeStampMaster (fileModificationSkew 5, maxFileModificationPolls 20)
allowSystemOperations : Allowing user-supplied system call operations

// * * * * * * * * * * * * * * * * * * * * * * * * * * * * * * * * * * * * * //
Create time

Create mesh for time = 0


PISO: Operating solver in PISO mode

Reading transportProperties

Reading field p

Reading field U

Reading/calculating face flux field phi


Starting time loop

Time = 0.001

Courant Number mean: 0 max: 0
DILUPBiCGStab:  Solving for Ux, Initial residual = 1, Final residual = 0.00976191, No Iterations 5
DILUPBiCGStab:  Solving for Uy:  solution singularity
DILUPBiCGStab:  Solving for Uz:  solution singularity
linear solve U 66993
[OGL LOG][Proc: 0]global_index_init : 60 mu s
[OGL LOG][Proc: 0]global_index_init : 2 mu s
[OGL LOG][Proc: 0]global_index_init : 1 mu s
[OGL LOG][Proc: 0]global_index_init : 1 mu s
[OGL LOG][Proc: 0]init_host_sparsity_pattern : 589558 mu s
[OGL LOG][Proc: 0]update_host_matrix_data : 5012 mu s
[OGL LOG][Proc: 0]convert_coo_to_csr : 921 mu s
[OGL LOG][Proc: 0]gather_initGuess : 4371 mu s
[OGL LOG][Proc: 0]gather_RHS : 1829 mu s
[OGL LOG][Proc: 0]gather_global_matrix : 0 mu s
[OGL LOG][Proc: 0]init_precond : 63709 mu s
[OGL LOG][Proc: 0]generate_solver : 7 mu s
[OGL LOG][Proc: 0]solve : 264369 mu s
[OGL LOG][Proc: 0]retrieve_result_from_device : 1932 mu s
ISAIcudaGKOCG:  Solving for p, Initial residual = 1, Final residual = 9.46171e-07, No Iterations 702
linear solve p 2797241
time step continuity errors : sum local = 5.47512e-10, global = 1.53606e-20, cumulative = 1.53606e-20
[OGL LOG][Proc: 0]global_index_init : 48 mu s
[OGL LOG][Proc: 0]global_index_init : 1 mu s
[OGL LOG][Proc: 0]global_index_init : 2 mu s
[OGL LOG][Proc: 0]global_index_init : 1 mu s
[OGL LOG][Proc: 0]update_host_matrix_data : 3585 mu s
[OGL LOG][Proc: 0]gather_initGuess : 7 mu s
[OGL LOG][Proc: 0]gather_RHS : 3873 mu s
[OGL LOG][Proc: 0]gather_global_matrix : 0 mu s
read from registry
[OGL LOG][Proc: 0]init_precond : 17 mu s
[OGL LOG][Proc: 0]generate_solver : 0 mu s
[OGL LOG][Proc: 0]solve : 224696 mu s
[OGL LOG][Proc: 0]retrieve_result_from_device : 1552 mu s
ISAIcudaGKOCG:  Solving for p, Initial residual = 0.777378, Final residual = 7.20631e-07, No Iterations 701
linear solve p 235821
time step continuity errors : sum local = 5.2553e-10, global = 3.09823e-21, cumulative = 1.84588e-20
ExecutionTime = 3.32 s  ClockTime = 4 s

Time = 0.002

Courant Number mean: 0.0555224 max: 0.807219
DILUPBiCGStab:  Solving for Ux, Initial residual = 0.137481, Final residual = 0.00480444, No Iterations 5
DILUPBiCGStab:  Solving for Uy, Initial residual = 0.431367, Final residual = 0.0127824, No Iterations 5
DILUPBiCGStab:  Solving for Uz, Initial residual = 0.97357, Final residual = 0.0274117, No Iterations 5
linear solve U 123817
[OGL LOG][Proc: 0]global_index_init : 35 mu s
[OGL LOG][Proc: 0]global_index_init : 1 mu s
[OGL LOG][Proc: 0]global_index_init : 1 mu s
[OGL LOG][Proc: 0]global_index_init : 1 mu s
[OGL LOG][Proc: 0]update_host_matrix_data : 3549 mu s
[OGL LOG][Proc: 0]gather_initGuess : 1 mu s
[OGL LOG][Proc: 0]gather_RHS : 3380 mu s
[OGL LOG][Proc: 0]gather_global_matrix : 0 mu s
read from registry
[OGL LOG][Proc: 0]init_precond : 7 mu s
[OGL LOG][Proc: 0]generate_solver : 1 mu s
[OGL LOG][Proc: 0]solve : 224955 mu s
[OGL LOG][Proc: 0]retrieve_result_from_device : 2278 mu s
ISAIcudaGKOCG:  Solving for p, Initial residual = 0.808994, Final residual = 3.75751e-07, No Iterations 701
linear solve p 236136
time step continuity errors : sum local = 4.02819e-10, global = -9.3232e-22, cumulative = 1.75265e-20
[OGL LOG][Proc: 0]global_index_init : 26 mu s
[OGL LOG][Proc: 0]global_index_init : 2 mu s
[OGL LOG][Proc: 0]global_index_init : 1 mu s
[OGL LOG][Proc: 0]global_index_init : 1 mu s
[OGL LOG][Proc: 0]update_host_matrix_data : 3529 mu s
[OGL LOG][Proc: 0]gather_initGuess : 1 mu s
[OGL LOG][Proc: 0]gather_RHS : 2637 mu s
[OGL LOG][Proc: 0]gather_global_matrix : 0 mu s
read from registry
[OGL LOG][Proc: 0]init_precond : 8 mu s
[OGL LOG][Proc: 0]generate_solver : 1 mu s
[OGL LOG][Proc: 0]solve : 225027 mu s
[OGL LOG][Proc: 0]retrieve_result_from_device : 2314 mu s
ISAIcudaGKOCG:  Solving for p, Initial residual = 0.74964, Final residual = 3.56748e-07, No Iterations 701
linear solve p 242501
time step continuity errors : sum local = 3.9029e-10, global = -3.08348e-21, cumulative = 1.4443e-20
ExecutionTime = 4.01 s  ClockTime = 5 s

Time = 0.003

Courant Number mean: 0.0846038 max: 0.943672
DILUPBiCGStab:  Solving for Ux, Initial residual = 0.0646795, Final residual = 0.00170435, No Iterations 5
DILUPBiCGStab:  Solving for Uy, Initial residual = 0.226339, Final residual = 0.004271, No Iterations 5
DILUPBiCGStab:  Solving for Uz, Initial residual = 0.765697, Final residual = 0.0189348, No Iterations 5
linear solve U 124387
[OGL LOG][Proc: 0]global_index_init : 10 mu s
[OGL LOG][Proc: 0]global_index_init : 3 mu s
[OGL LOG][Proc: 0]global_index_init : 3 mu s
[OGL LOG][Proc: 0]global_index_init : 2 mu s
[OGL LOG][Proc: 0]update_host_matrix_data : 4619 mu s
[OGL LOG][Proc: 0]gather_initGuess : 1 mu s
[OGL LOG][Proc: 0]gather_RHS : 2897 mu s
[OGL LOG][Proc: 0]gather_global_matrix : 0 mu s
read from registry
[OGL LOG][Proc: 0]init_precond : 7 mu s
[OGL LOG][Proc: 0]generate_solver : 0 mu s
[OGL LOG][Proc: 0]solve : 215925 mu s
[OGL LOG][Proc: 0]retrieve_result_from_device : 1327 mu s
ISAIcudaGKOCG:  Solving for p, Initial residual = 0.837716, Final residual = 3.60896e-07, No Iterations 673
linear solve p 226788
time step continuity errors : sum local = 3.57216e-10, global = 1.33075e-21, cumulative = 1.57738e-20
[OGL LOG][Proc: 0]global_index_init : 17 mu s
[OGL LOG][Proc: 0]global_index_init : 1 mu s
[OGL LOG][Proc: 0]global_index_init : 1 mu s
[OGL LOG][Proc: 0]global_index_init : 1 mu s
[OGL LOG][Proc: 0]update_host_matrix_data : 3567 mu s
[OGL LOG][Proc: 0]gather_initGuess : 1 mu s
[OGL LOG][Proc: 0]gather_RHS : 2640 mu s
[OGL LOG][Proc: 0]gather_global_matrix : 0 mu s
read from registry
[OGL LOG][Proc: 0]init_precond : 7 mu s
[OGL LOG][Proc: 0]generate_solver : 0 mu s
[OGL LOG][Proc: 0]solve : 217228 mu s
[OGL LOG][Proc: 0]retrieve_result_from_device : 1338 mu s
ISAIcudaGKOCG:  Solving for p, Initial residual = 0.805107, Final residual = 3.51053e-07, No Iterations 677
linear solve p 226767
time step continuity errors : sum local = 3.39038e-10, global = -3.11684e-21, cumulative = 1.26569e-20
ExecutionTime = 4.67 s  ClockTime = 5 s

End

Finalising parallel run
================================================================================
hash: 3b3a24c2f3d57d15f9a7410967358a2b
/*---------------------------------------------------------------------------*\
| =========                 |                                                 |
| \\      /  F ield         | OpenFOAM: The Open Source CFD Toolbox           |
|  \\    /   O peration     | Version:  2112                                  |
|   \\  /    A nd           | Website:  www.openfoam.com                      |
|    \\/     M anipulation  |                                                 |
\*---------------------------------------------------------------------------*/
Build  : d44c8318f0-20220111 OPENFOAM=2112 version=v2112
Arch   : "LSB;label=32;scalar=64"
Exec   : icoFoam -parallel
Date   : Jan 29 2022
Time   : 14:18:27
Host   : hkn0535.localdomain
PID    : 1768899
I/O    : uncollated
Case   : /hkfs/home/project/hk-project-test-fine/eq4036/data/code/ogl_labbook/lidDrivenCavity/resolution/Variation_mesh/100/Variation_matrix_solver/BiCGStab_NoPrecond_CUDA/Variation_mpiRank/38/base
nProcs : 38
Hosts  :
(
    (hkn0535.localdomain 38)
)
Pstream initialized with:
    floatTransfer      : 0
    nProcsSimpleSum    : 0
    commsType          : nonBlocking
    polling iterations : 0
trapFpe: Floating point exception trapping enabled (FOAM_SIGFPE).
fileModificationChecking : Monitoring run-time modified files using timeStampMaster (fileModificationSkew 5, maxFileModificationPolls 20)
allowSystemOperations : Allowing user-supplied system call operations

// * * * * * * * * * * * * * * * * * * * * * * * * * * * * * * * * * * * * * //
Create time

Create mesh for time = 0


PISO: Operating solver in PISO mode

Reading transportProperties

Reading field p

Reading field U

Reading/calculating face flux field phi


Starting time loop

Time = 0.001

Courant Number mean: 0 max: 0
DILUPBiCGStab:  Solving for Ux, Initial residual = 1, Final residual = 0.0113126, No Iterations 5
DILUPBiCGStab:  Solving for Uy:  solution singularity
DILUPBiCGStab:  Solving for Uz:  solution singularity
linear solve U 19656
[OGL LOG][Proc: 0]global_index_init : 10365 mu s
[OGL LOG][Proc: 0]global_index_init : 12 mu s
[OGL LOG][Proc: 0]global_index_init : 12 mu s
[OGL LOG][Proc: 0]global_index_init : 17 mu s
[OGL LOG][Proc: 0]init_host_sparsity_pattern : 91329 mu s
[OGL LOG][Proc: 0]update_host_matrix_data : 831 mu s
[OGL LOG][Proc: 0]convert_coo_to_csr : 1119 mu s
[OGL LOG][Proc: 0]gather_initGuess : 3814 mu s
[OGL LOG][Proc: 0]gather_RHS : 2182 mu s
[OGL LOG][Proc: 0]gather_global_matrix : 4 mu s
[OGL LOG][Proc: 0]init_precond : 51 mu s
[OGL LOG][Proc: 0]generate_solver : 14 mu s
[OGL LOG][Proc: 0]solve : 385923 mu s
[OGL LOG][Proc: 0]retrieve_result_from_device : 3571 mu s
nonecudaGKOBiCGStab:  Solving for p, Initial residual = 1, Final residual = 9.89019e-07, No Iterations 691
linear solve p 6816439
time step continuity errors : sum local = 6.68553e-06, global = -1.37643e-20, cumulative = -1.37643e-20
[OGL LOG][Proc: 0]global_index_init : 140 mu s
[OGL LOG][Proc: 0]global_index_init : 8 mu s
[OGL LOG][Proc: 0]global_index_init : 12 mu s
[OGL LOG][Proc: 0]global_index_init : 13 mu s
[OGL LOG][Proc: 0]update_host_matrix_data : 993 mu s
[OGL LOG][Proc: 0]gather_initGuess : 4 mu s
[OGL LOG][Proc: 0]gather_RHS : 3763 mu s
[OGL LOG][Proc: 0]gather_global_matrix : 0 mu s
read from registry
[OGL LOG][Proc: 0]init_precond : 17 mu s
[OGL LOG][Proc: 0]generate_solver : 1 mu s
[OGL LOG][Proc: 0]solve : 301093 mu s
[OGL LOG][Proc: 0]retrieve_result_from_device : 3679 mu s
nonecudaGKOBiCGStab:  Solving for p, Initial residual = 0.78035, Final residual = 7.49444e-07, No Iterations 662
linear solve p 310905
time step continuity errors : sum local = 2.27821e-07, global = -3.04402e-21, cumulative = -1.68083e-20
ExecutionTime = 4.87 s  ClockTime = 8 s

Time = 0.002

Courant Number mean: 0.0552338 max: 0.807694
DILUPBiCGStab:  Solving for Ux, Initial residual = 0.137256, Final residual = 0.0060618, No Iterations 5
DILUPBiCGStab:  Solving for Uy, Initial residual = 0.431816, Final residual = 0.0172626, No Iterations 5
DILUPBiCGStab:  Solving for Uz, Initial residual = 0.95657, Final residual = 0.0364118, No Iterations 5
linear solve U 30134
[OGL LOG][Proc: 0]global_index_init : 47 mu s
[OGL LOG][Proc: 0]global_index_init : 15 mu s
[OGL LOG][Proc: 0]global_index_init : 9 mu s
[OGL LOG][Proc: 0]global_index_init : 13 mu s
[OGL LOG][Proc: 0]update_host_matrix_data : 1041 mu s
[OGL LOG][Proc: 0]gather_initGuess : 1 mu s
[OGL LOG][Proc: 0]gather_RHS : 3201 mu s
[OGL LOG][Proc: 0]gather_global_matrix : 0 mu s
read from registry
[OGL LOG][Proc: 0]init_precond : 8 mu s
[OGL LOG][Proc: 0]generate_solver : 1 mu s
[OGL LOG][Proc: 0]solve : 294927 mu s
[OGL LOG][Proc: 0]retrieve_result_from_device : 1952 mu s
nonecudaGKOBiCGStab:  Solving for p, Initial residual = 0.815635, Final residual = 6.88929e-07, No Iterations 650
linear solve p 302170
time step continuity errors : sum local = 1.45388e-09, global = -1.82302e-20, cumulative = -3.50385e-20
[OGL LOG][Proc: 0]global_index_init : 25 mu s
[OGL LOG][Proc: 0]global_index_init : 7 mu s
[OGL LOG][Proc: 0]global_index_init : 12 mu s
[OGL LOG][Proc: 0]global_index_init : 23 mu s
[OGL LOG][Proc: 0]update_host_matrix_data : 1051 mu s
[OGL LOG][Proc: 0]gather_initGuess : 1 mu s
[OGL LOG][Proc: 0]gather_RHS : 3412 mu s
[OGL LOG][Proc: 0]gather_global_matrix : 0 mu s
read from registry
[OGL LOG][Proc: 0]init_precond : 9 mu s
[OGL LOG][Proc: 0]generate_solver : 2 mu s
[OGL LOG][Proc: 0]solve : 289167 mu s
[OGL LOG][Proc: 0]retrieve_result_from_device : 2225 mu s
nonecudaGKOBiCGStab:  Solving for p, Initial residual = 0.756208, Final residual = 7.11572e-07, No Iterations 637
linear solve p 296934
time step continuity errors : sum local = 1.35658e-09, global = -6.36784e-21, cumulative = -4.14063e-20
ExecutionTime = 5.52 s  ClockTime = 8 s

Time = 0.003

Courant Number mean: 0.0841585 max: 0.943758
DILUPBiCGStab:  Solving for Ux, Initial residual = 0.0645232, Final residual = 0.00215275, No Iterations 5
DILUPBiCGStab:  Solving for Uy, Initial residual = 0.22635, Final residual = 0.00570803, No Iterations 5
DILUPBiCGStab:  Solving for Uz, Initial residual = 0.735042, Final residual = 0.024149, No Iterations 5
linear solve U 29181
[OGL LOG][Proc: 0]global_index_init : 23 mu s
[OGL LOG][Proc: 0]global_index_init : 9 mu s
[OGL LOG][Proc: 0]global_index_init : 15 mu s
[OGL LOG][Proc: 0]global_index_init : 6 mu s
[OGL LOG][Proc: 0]update_host_matrix_data : 1037 mu s
[OGL LOG][Proc: 0]gather_initGuess : 1 mu s
[OGL LOG][Proc: 0]gather_RHS : 3221 mu s
[OGL LOG][Proc: 0]gather_global_matrix : 0 mu s
read from registry
[OGL LOG][Proc: 0]init_precond : 7 mu s
[OGL LOG][Proc: 0]generate_solver : 1 mu s
[OGL LOG][Proc: 0]solve : 307092 mu s
[OGL LOG][Proc: 0]retrieve_result_from_device : 1817 mu s
nonecudaGKOBiCGStab:  Solving for p, Initial residual = 0.8406, Final residual = 5.87249e-07, No Iterations 675
linear solve p 314231
time step continuity errors : sum local = 7.909e-10, global = -1.95656e-20, cumulative = -6.09719e-20
[OGL LOG][Proc: 0]global_index_init : 33 mu s
[OGL LOG][Proc: 0]global_index_init : 8 mu s
[OGL LOG][Proc: 0]global_index_init : 7 mu s
[OGL LOG][Proc: 0]global_index_init : 9 mu s
[OGL LOG][Proc: 0]update_host_matrix_data : 1086 mu s
[OGL LOG][Proc: 0]gather_initGuess : 2 mu s
[OGL LOG][Proc: 0]gather_RHS : 3334 mu s
[OGL LOG][Proc: 0]gather_global_matrix : 0 mu s
read from registry
[OGL LOG][Proc: 0]init_precond : 10 mu s
[OGL LOG][Proc: 0]generate_solver : 1 mu s
[OGL LOG][Proc: 0]solve : 299744 mu s
[OGL LOG][Proc: 0]retrieve_result_from_device : 1274 mu s
nonecudaGKOBiCGStab:  Solving for p, Initial residual = 0.806814, Final residual = 8.16844e-07, No Iterations 662
linear solve p 306614
time step continuity errors : sum local = 4.20181e-06, global = -1.01644e-20, cumulative = -7.11363e-20
ExecutionTime = 6.2 s  ClockTime = 9 s

End

Finalising parallel run
================================================================================
hash: 1a7e1118681b9498201ad21c13af20cb
/*---------------------------------------------------------------------------*\
| =========                 |                                                 |
| \\      /  F ield         | OpenFOAM: The Open Source CFD Toolbox           |
|  \\    /   O peration     | Version:  2112                                  |
|   \\  /    A nd           | Website:  www.openfoam.com                      |
|    \\/     M anipulation  |                                                 |
\*---------------------------------------------------------------------------*/
Build  : d44c8318f0-20220111 OPENFOAM=2112 version=v2112
Arch   : "LSB;label=32;scalar=64"
Exec   : icoFoam -parallel
Date   : Jan 29 2022
Time   : 14:18:40
Host   : hkn0535.localdomain
PID    : 1769864
I/O    : uncollated
Case   : /hkfs/home/project/hk-project-test-fine/eq4036/data/code/ogl_labbook/lidDrivenCavity/resolution/Variation_mesh/100/Variation_matrix_solver/BiCGStab_NoPrecond_CUDA/Variation_mpiRank/8/base
nProcs : 8
Hosts  :
(
    (hkn0535.localdomain 8)
)
Pstream initialized with:
    floatTransfer      : 0
    nProcsSimpleSum    : 0
    commsType          : nonBlocking
    polling iterations : 0
trapFpe: Floating point exception trapping enabled (FOAM_SIGFPE).
fileModificationChecking : Monitoring run-time modified files using timeStampMaster (fileModificationSkew 5, maxFileModificationPolls 20)
allowSystemOperations : Allowing user-supplied system call operations

// * * * * * * * * * * * * * * * * * * * * * * * * * * * * * * * * * * * * * //
Create time

Create mesh for time = 0


PISO: Operating solver in PISO mode

Reading transportProperties

Reading field p

Reading field U

Reading/calculating face flux field phi


Starting time loop

Time = 0.001

Courant Number mean: 0 max: 0
DILUPBiCGStab:  Solving for Ux, Initial residual = 1, Final residual = 0.00976191, No Iterations 5
DILUPBiCGStab:  Solving for Uy:  solution singularity
DILUPBiCGStab:  Solving for Uz:  solution singularity
linear solve U 68307
[OGL LOG][Proc: 0]global_index_init : 15017 mu s
[OGL LOG][Proc: 0]global_index_init : 2 mu s
[OGL LOG][Proc: 0]global_index_init : 2 mu s
[OGL LOG][Proc: 0]global_index_init : 1 mu s
[OGL LOG][Proc: 0]init_host_sparsity_pattern : 589968 mu s
[OGL LOG][Proc: 0]update_host_matrix_data : 4519 mu s
[OGL LOG][Proc: 0]convert_coo_to_csr : 991 mu s
[OGL LOG][Proc: 0]gather_initGuess : 4456 mu s
[OGL LOG][Proc: 0]gather_RHS : 1894 mu s
[OGL LOG][Proc: 0]gather_global_matrix : 5 mu s
[OGL LOG][Proc: 0]init_precond : 47 mu s
[OGL LOG][Proc: 0]generate_solver : 11 mu s
[OGL LOG][Proc: 0]solve : 398200 mu s
[OGL LOG][Proc: 0]retrieve_result_from_device : 3188 mu s
nonecudaGKOBiCGStab:  Solving for p, Initial residual = 1, Final residual = 5.4595e-07, No Iterations 706
linear solve p 2821588
time step continuity errors : sum local = 0.000424942, global = -1.21973e-18, cumulative = -1.21973e-18
[OGL LOG][Proc: 0]global_index_init : 44 mu s
[OGL LOG][Proc: 0]global_index_init : 1 mu s
[OGL LOG][Proc: 0]global_index_init : 2 mu s
[OGL LOG][Proc: 0]global_index_init : 1 mu s
[OGL LOG][Proc: 0]update_host_matrix_data : 3636 mu s
[OGL LOG][Proc: 0]gather_initGuess : 6 mu s
[OGL LOG][Proc: 0]gather_RHS : 4156 mu s
[OGL LOG][Proc: 0]gather_global_matrix : 0 mu s
read from registry
[OGL LOG][Proc: 0]init_precond : 18 mu s
[OGL LOG][Proc: 0]generate_solver : 1 mu s
[OGL LOG][Proc: 0]solve : 327968 mu s
[OGL LOG][Proc: 0]retrieve_result_from_device : 2310 mu s
nonecudaGKOBiCGStab:  Solving for p, Initial residual = 0.87555, Final residual = 1.42766e-07, No Iterations 714
linear solve p 340229
time step continuity errors : sum local = 3.72217e-10, global = -4.14495e-22, cumulative = -1.22014e-18
ExecutionTime = 3.45 s  ClockTime = 4 s

Time = 0.002

Courant Number mean: 0.0555313 max: 0.807219
DILUPBiCGStab:  Solving for Ux, Initial residual = 0.144606, Final residual = 0.00531422, No Iterations 5
DILUPBiCGStab:  Solving for Uy, Initial residual = 0.449861, Final residual = 0.0143641, No Iterations 5
DILUPBiCGStab:  Solving for Uz, Initial residual = 0.895849, Final residual = 0.0481955, No Iterations 5
linear solve U 123528
[OGL LOG][Proc: 0]global_index_init : 19 mu s
[OGL LOG][Proc: 0]global_index_init : 1 mu s
[OGL LOG][Proc: 0]global_index_init : 2 mu s
[OGL LOG][Proc: 0]global_index_init : 1 mu s
[OGL LOG][Proc: 0]update_host_matrix_data : 3569 mu s
[OGL LOG][Proc: 0]gather_initGuess : 1 mu s
[OGL LOG][Proc: 0]gather_RHS : 3398 mu s
[OGL LOG][Proc: 0]gather_global_matrix : 0 mu s
read from registry
[OGL LOG][Proc: 0]init_precond : 8 mu s
[OGL LOG][Proc: 0]generate_solver : 1 mu s
[OGL LOG][Proc: 0]solve : 313202 mu s
[OGL LOG][Proc: 0]retrieve_result_from_device : 1574 mu s
nonecudaGKOBiCGStab:  Solving for p, Initial residual = 0.937206, Final residual = 7.85026e-07, No Iterations 686
linear solve p 323777
time step continuity errors : sum local = 5.19557e-09, global = 3.14329e-22, cumulative = -1.21983e-18
[OGL LOG][Proc: 0]global_index_init : 6 mu s
[OGL LOG][Proc: 0]global_index_init : 2 mu s
[OGL LOG][Proc: 0]global_index_init : 2 mu s
[OGL LOG][Proc: 0]global_index_init : 1 mu s
[OGL LOG][Proc: 0]update_host_matrix_data : 3521 mu s
[OGL LOG][Proc: 0]gather_initGuess : 1 mu s
[OGL LOG][Proc: 0]gather_RHS : 2677 mu s
[OGL LOG][Proc: 0]gather_global_matrix : 0 mu s
read from registry
[OGL LOG][Proc: 0]init_precond : 7 mu s
[OGL LOG][Proc: 0]generate_solver : 1 mu s
[OGL LOG][Proc: 0]solve : 364816 mu s
[OGL LOG][Proc: 0]retrieve_result_from_device : 1640 mu s
nonecudaGKOBiCGStab:  Solving for p, Initial residual = 0.860327, Final residual = 3.70417e-07, No Iterations 797
linear solve p 374703
time step continuity errors : sum local = 6.47147e-07, global = 6.00864e-21, cumulative = -1.21382e-18
ExecutionTime = 4.37 s  ClockTime = 5 s

Time = 0.003

Courant Number mean: 0.0852319 max: 0.944278
DILUPBiCGStab:  Solving for Ux, Initial residual = 0.0732675, Final residual = 0.00182529, No Iterations 5
DILUPBiCGStab:  Solving for Uy, Initial residual = 0.27185, Final residual = 0.00676127, No Iterations 5
DILUPBiCGStab:  Solving for Uz, Initial residual = 0.828352, Final residual = 0.0271488, No Iterations 5
linear solve U 124077
[OGL LOG][Proc: 0]global_index_init : 16 mu s
[OGL LOG][Proc: 0]global_index_init : 2 mu s
[OGL LOG][Proc: 0]global_index_init : 2 mu s
[OGL LOG][Proc: 0]global_index_init : 1 mu s
[OGL LOG][Proc: 0]update_host_matrix_data : 3890 mu s
[OGL LOG][Proc: 0]gather_initGuess : 1 mu s
[OGL LOG][Proc: 0]gather_RHS : 2619 mu s
[OGL LOG][Proc: 0]gather_global_matrix : 0 mu s
read from registry
[OGL LOG][Proc: 0]init_precond : 7 mu s
[OGL LOG][Proc: 0]generate_solver : 1 mu s
[OGL LOG][Proc: 0]solve : 332782 mu s
[OGL LOG][Proc: 0]retrieve_result_from_device : 2220 mu s
nonecudaGKOBiCGStab:  Solving for p, Initial residual = 0.926442, Final residual = 7.76561e-08, No Iterations 729
linear solve p 343628
time step continuity errors : sum local = 4.76968e-05, global = -2.15146e-19, cumulative = -1.42897e-18
[OGL LOG][Proc: 0]global_index_init : 10 mu s
[OGL LOG][Proc: 0]global_index_init : 1 mu s
[OGL LOG][Proc: 0]global_index_init : 6 mu s
[OGL LOG][Proc: 0]global_index_init : 1 mu s
[OGL LOG][Proc: 0]update_host_matrix_data : 3590 mu s
[OGL LOG][Proc: 0]gather_initGuess : 3 mu s
[OGL LOG][Proc: 0]gather_RHS : 2675 mu s
[OGL LOG][Proc: 0]gather_global_matrix : 0 mu s
read from registry
[OGL LOG][Proc: 0]init_precond : 11 mu s
[OGL LOG][Proc: 0]generate_solver : 1 mu s
[OGL LOG][Proc: 0]solve : 357089 mu s
[OGL LOG][Proc: 0]retrieve_result_from_device : 1593 mu s
nonecudaGKOBiCGStab:  Solving for p, Initial residual = 0.848757, Final residual = 6.36541e-07, No Iterations 783
linear solve p 367155
time step continuity errors : sum local = 3.06905e-09, global = -1.40549e-20, cumulative = -1.44302e-18
ExecutionTime = 5.29 s  ClockTime = 5 s

End

Finalising parallel run
================================================================================
hash: a739dae50e00b98dc774118990e6bac2
/*---------------------------------------------------------------------------*\
| =========                 |                                                 |
| \\      /  F ield         | OpenFOAM: The Open Source CFD Toolbox           |
|  \\    /   O peration     | Version:  2112                                  |
|   \\  /    A nd           | Website:  www.openfoam.com                      |
|    \\/     M anipulation  |                                                 |
\*---------------------------------------------------------------------------*/
Build  : d44c8318f0-20220111 OPENFOAM=2112 version=v2112
Arch   : "LSB;label=32;scalar=64"
Exec   : icoFoam -parallel
Date   : Jan 29 2022
Time   : 14:18:48
Host   : hkn0535.localdomain
PID    : 1770078
I/O    : uncollated
Case   : /hkfs/home/project/hk-project-test-fine/eq4036/data/code/ogl_labbook/lidDrivenCavity/resolution/Variation_mesh/100/Variation_matrix_solver/CG_NoPrecond_CUDA/Variation_mpiRank/38/base
nProcs : 38
Hosts  :
(
    (hkn0535.localdomain 38)
)
Pstream initialized with:
    floatTransfer      : 0
    nProcsSimpleSum    : 0
    commsType          : nonBlocking
    polling iterations : 0
trapFpe: Floating point exception trapping enabled (FOAM_SIGFPE).
fileModificationChecking : Monitoring run-time modified files using timeStampMaster (fileModificationSkew 5, maxFileModificationPolls 20)
allowSystemOperations : Allowing user-supplied system call operations

// * * * * * * * * * * * * * * * * * * * * * * * * * * * * * * * * * * * * * //
Create time

Create mesh for time = 0


PISO: Operating solver in PISO mode

Reading transportProperties

Reading field p

Reading field U

Reading/calculating face flux field phi


Starting time loop

Time = 0.001

Courant Number mean: 0 max: 0
DILUPBiCGStab:  Solving for Ux, Initial residual = 1, Final residual = 0.0113126, No Iterations 5
DILUPBiCGStab:  Solving for Uy:  solution singularity
DILUPBiCGStab:  Solving for Uz:  solution singularity
linear solve U 17828
[OGL LOG][Proc: 0]global_index_init : 214187 mu s
[OGL LOG][Proc: 0]global_index_init : 31 mu s
[OGL LOG][Proc: 0]global_index_init : 10 mu s
[OGL LOG][Proc: 0]global_index_init : 18 mu s
[OGL LOG][Proc: 0]init_host_sparsity_pattern : 91497 mu s
[OGL LOG][Proc: 0]update_host_matrix_data : 893 mu s
[OGL LOG][Proc: 0]convert_coo_to_csr : 1097 mu s
[OGL LOG][Proc: 0]gather_initGuess : 4326 mu s
[OGL LOG][Proc: 0]gather_RHS : 2310 mu s
[OGL LOG][Proc: 0]gather_global_matrix : 0 mu s
[OGL LOG][Proc: 0]init_precond : 49 mu s
[OGL LOG][Proc: 0]generate_solver : 25 mu s
[OGL LOG][Proc: 0]solve : 247435 mu s
[OGL LOG][Proc: 0]retrieve_result_from_device : 3510 mu s
nonecudaGKOCG:  Solving for p, Initial residual = 1, Final residual = 9.26905e-07, No Iterations 861
linear solve p 6720832
time step continuity errors : sum local = 5.48543e-10, global = -8.59808e-21, cumulative = -8.59808e-21
[OGL LOG][Proc: 0]global_index_init : 57 mu s
[OGL LOG][Proc: 0]global_index_init : 11 mu s
[OGL LOG][Proc: 0]global_index_init : 9 mu s
[OGL LOG][Proc: 0]global_index_init : 14 mu s
[OGL LOG][Proc: 0]update_host_matrix_data : 1080 mu s
[OGL LOG][Proc: 0]gather_initGuess : 5 mu s
[OGL LOG][Proc: 0]gather_RHS : 3837 mu s
[OGL LOG][Proc: 0]gather_global_matrix : 0 mu s
read from registry
[OGL LOG][Proc: 0]init_precond : 18 mu s
[OGL LOG][Proc: 0]generate_solver : 2 mu s
[OGL LOG][Proc: 0]solve : 201533 mu s
[OGL LOG][Proc: 0]retrieve_result_from_device : 3008 mu s
nonecudaGKOCG:  Solving for p, Initial residual = 0.777482, Final residual = 1.76218e-07, No Iterations 885
linear solve p 210746
time step continuity errors : sum local = 1.3123e-10, global = -9.05034e-21, cumulative = -1.76484e-20
ExecutionTime = 4.63 s  ClockTime = 7 s

Time = 0.002

Courant Number mean: 0.0552338 max: 0.807703
DILUPBiCGStab:  Solving for Ux, Initial residual = 0.137184, Final residual = 0.00605911, No Iterations 5
DILUPBiCGStab:  Solving for Uy, Initial residual = 0.431634, Final residual = 0.017243, No Iterations 5
DILUPBiCGStab:  Solving for Uz, Initial residual = 0.955192, Final residual = 0.0356002, No Iterations 5
linear solve U 29665
[OGL LOG][Proc: 0]global_index_init : 43 mu s
[OGL LOG][Proc: 0]global_index_init : 10 mu s
[OGL LOG][Proc: 0]global_index_init : 11 mu s
[OGL LOG][Proc: 0]global_index_init : 12 mu s
[OGL LOG][Proc: 0]update_host_matrix_data : 1047 mu s
[OGL LOG][Proc: 0]gather_initGuess : 1 mu s
[OGL LOG][Proc: 0]gather_RHS : 3260 mu s
[OGL LOG][Proc: 0]gather_global_matrix : 0 mu s
read from registry
[OGL LOG][Proc: 0]init_precond : 7 mu s
[OGL LOG][Proc: 0]generate_solver : 1 mu s
[OGL LOG][Proc: 0]solve : 200508 mu s
[OGL LOG][Proc: 0]retrieve_result_from_device : 2543 mu s
nonecudaGKOCG:  Solving for p, Initial residual = 0.818388, Final residual = 1.93998e-07, No Iterations 876
linear solve p 208404
time step continuity errors : sum local = 2.1885e-10, global = 1.61251e-21, cumulative = -1.60359e-20
[OGL LOG][Proc: 0]global_index_init : 23 mu s
[OGL LOG][Proc: 0]global_index_init : 9 mu s
[OGL LOG][Proc: 0]global_index_init : 13 mu s
[OGL LOG][Proc: 0]global_index_init : 13 mu s
[OGL LOG][Proc: 0]update_host_matrix_data : 1035 mu s
[OGL LOG][Proc: 0]gather_initGuess : 1 mu s
[OGL LOG][Proc: 0]gather_RHS : 3504 mu s
[OGL LOG][Proc: 0]gather_global_matrix : 0 mu s
read from registry
[OGL LOG][Proc: 0]init_precond : 8 mu s
[OGL LOG][Proc: 0]generate_solver : 1 mu s
[OGL LOG][Proc: 0]solve : 199621 mu s
[OGL LOG][Proc: 0]retrieve_result_from_device : 1394 mu s
nonecudaGKOCG:  Solving for p, Initial residual = 0.75826, Final residual = 1.68379e-07, No Iterations 876
linear solve p 206576
time step continuity errors : sum local = 1.94061e-10, global = -9.41179e-21, cumulative = -2.54477e-20
ExecutionTime = 5.1 s  ClockTime = 8 s

Time = 0.003

Courant Number mean: 0.0841485 max: 0.943746
DILUPBiCGStab:  Solving for Ux, Initial residual = 0.0644956, Final residual = 0.00215472, No Iterations 5
DILUPBiCGStab:  Solving for Uy, Initial residual = 0.226245, Final residual = 0.00574233, No Iterations 5
DILUPBiCGStab:  Solving for Uz, Initial residual = 0.730635, Final residual = 0.0239014, No Iterations 5
linear solve U 29250
[OGL LOG][Proc: 0]global_index_init : 37 mu s
[OGL LOG][Proc: 0]global_index_init : 8 mu s
[OGL LOG][Proc: 0]global_index_init : 12 mu s
[OGL LOG][Proc: 0]global_index_init : 7 mu s
[OGL LOG][Proc: 0]update_host_matrix_data : 1053 mu s
[OGL LOG][Proc: 0]gather_initGuess : 1 mu s
[OGL LOG][Proc: 0]gather_RHS : 3238 mu s
[OGL LOG][Proc: 0]gather_global_matrix : 0 mu s
read from registry
[OGL LOG][Proc: 0]init_precond : 7 mu s
[OGL LOG][Proc: 0]generate_solver : 1 mu s
[OGL LOG][Proc: 0]solve : 199646 mu s
[OGL LOG][Proc: 0]retrieve_result_from_device : 1052 mu s
nonecudaGKOCG:  Solving for p, Initial residual = 0.84121, Final residual = 1.69649e-07, No Iterations 876
linear solve p 206023
time step continuity errors : sum local = 1.71873e-10, global = -3.5954e-20, cumulative = -6.14017e-20
[OGL LOG][Proc: 0]global_index_init : 38 mu s
[OGL LOG][Proc: 0]global_index_init : 8 mu s
[OGL LOG][Proc: 0]global_index_init : 6 mu s
[OGL LOG][Proc: 0]global_index_init : 7 mu s
[OGL LOG][Proc: 0]update_host_matrix_data : 1024 mu s
[OGL LOG][Proc: 0]gather_initGuess : 1 mu s
[OGL LOG][Proc: 0]gather_RHS : 3261 mu s
[OGL LOG][Proc: 0]gather_global_matrix : 0 mu s
read from registry
[OGL LOG][Proc: 0]init_precond : 8 mu s
[OGL LOG][Proc: 0]generate_solver : 1 mu s
[OGL LOG][Proc: 0]solve : 199459 mu s
[OGL LOG][Proc: 0]retrieve_result_from_device : 1059 mu s
nonecudaGKOCG:  Solving for p, Initial residual = 0.807262, Final residual = 1.54788e-07, No Iterations 876
linear solve p 205843
time step continuity errors : sum local = 1.53014e-10, global = -1.39985e-20, cumulative = -7.54002e-20
ExecutionTime = 5.57 s  ClockTime = 8 s

End

Finalising parallel run
================================================================================
hash: a3cf72b4143a909899096047ae9a7c49
/*---------------------------------------------------------------------------*\
| =========                 |                                                 |
| \\      /  F ield         | OpenFOAM: The Open Source CFD Toolbox           |
|  \\    /   O peration     | Version:  2112                                  |
|   \\  /    A nd           | Website:  www.openfoam.com                      |
|    \\/     M anipulation  |                                                 |
\*---------------------------------------------------------------------------*/
Build  : d44c8318f0-20220111 OPENFOAM=2112 version=v2112
Arch   : "LSB;label=32;scalar=64"
Exec   : icoFoam -parallel
Date   : Jan 29 2022
Time   : 14:19:00
Host   : hkn0535.localdomain
PID    : 1771016
I/O    : uncollated
Case   : /hkfs/home/project/hk-project-test-fine/eq4036/data/code/ogl_labbook/lidDrivenCavity/resolution/Variation_mesh/100/Variation_matrix_solver/CG_NoPrecond_CUDA/Variation_mpiRank/8/base
nProcs : 8
Hosts  :
(
    (hkn0535.localdomain 8)
)
Pstream initialized with:
    floatTransfer      : 0
    nProcsSimpleSum    : 0
    commsType          : nonBlocking
    polling iterations : 0
trapFpe: Floating point exception trapping enabled (FOAM_SIGFPE).
fileModificationChecking : Monitoring run-time modified files using timeStampMaster (fileModificationSkew 5, maxFileModificationPolls 20)
allowSystemOperations : Allowing user-supplied system call operations

// * * * * * * * * * * * * * * * * * * * * * * * * * * * * * * * * * * * * * //
Create time

Create mesh for time = 0


PISO: Operating solver in PISO mode

Reading transportProperties

Reading field p

Reading field U

Reading/calculating face flux field phi


Starting time loop

Time = 0.001

Courant Number mean: 0 max: 0
DILUPBiCGStab:  Solving for Ux, Initial residual = 1, Final residual = 0.00976191, No Iterations 5
DILUPBiCGStab:  Solving for Uy:  solution singularity
DILUPBiCGStab:  Solving for Uz:  solution singularity
linear solve U 68228
[OGL LOG][Proc: 0]global_index_init : 63 mu s
[OGL LOG][Proc: 0]global_index_init : 2 mu s
[OGL LOG][Proc: 0]global_index_init : 1 mu s
[OGL LOG][Proc: 0]global_index_init : 1 mu s
[OGL LOG][Proc: 0]init_host_sparsity_pattern : 592337 mu s
[OGL LOG][Proc: 0]update_host_matrix_data : 5342 mu s
[OGL LOG][Proc: 0]convert_coo_to_csr : 944 mu s
[OGL LOG][Proc: 0]gather_initGuess : 4425 mu s
[OGL LOG][Proc: 0]gather_RHS : 1911 mu s
[OGL LOG][Proc: 0]gather_global_matrix : 0 mu s
[OGL LOG][Proc: 0]init_precond : 49 mu s
[OGL LOG][Proc: 0]generate_solver : 11 mu s
[OGL LOG][Proc: 0]solve : 245228 mu s
[OGL LOG][Proc: 0]retrieve_result_from_device : 3183 mu s
nonecudaGKOCG:  Solving for p, Initial residual = 1, Final residual = 9.67315e-07, No Iterations 901
linear solve p 2680382
time step continuity errors : sum local = 5.59741e-10, global = 1.59842e-20, cumulative = 1.59842e-20
[OGL LOG][Proc: 0]global_index_init : 7 mu s
[OGL LOG][Proc: 0]global_index_init : 1 mu s
[OGL LOG][Proc: 0]global_index_init : 2 mu s
[OGL LOG][Proc: 0]global_index_init : 1 mu s
[OGL LOG][Proc: 0]update_host_matrix_data : 3599 mu s
[OGL LOG][Proc: 0]gather_initGuess : 6 mu s
[OGL LOG][Proc: 0]gather_RHS : 3893 mu s
[OGL LOG][Proc: 0]gather_global_matrix : 0 mu s
read from registry
[OGL LOG][Proc: 0]init_precond : 15 mu s
[OGL LOG][Proc: 0]generate_solver : 1 mu s
[OGL LOG][Proc: 0]solve : 196725 mu s
[OGL LOG][Proc: 0]retrieve_result_from_device : 2375 mu s
nonecudaGKOCG:  Solving for p, Initial residual = 0.777378, Final residual = 6.70182e-07, No Iterations 901
linear solve p 208712
time step continuity errors : sum local = 4.88737e-10, global = -8.67351e-21, cumulative = 7.31065e-21
ExecutionTime = 3.19 s  ClockTime = 4 s

Time = 0.002

Courant Number mean: 0.0555224 max: 0.807219
DILUPBiCGStab:  Solving for Ux, Initial residual = 0.137481, Final residual = 0.00480444, No Iterations 5
DILUPBiCGStab:  Solving for Uy, Initial residual = 0.431367, Final residual = 0.0127824, No Iterations 5
DILUPBiCGStab:  Solving for Uz, Initial residual = 0.97357, Final residual = 0.0274119, No Iterations 5
linear solve U 126092
[OGL LOG][Proc: 0]global_index_init : 48 mu s
[OGL LOG][Proc: 0]global_index_init : 2 mu s
[OGL LOG][Proc: 0]global_index_init : 2 mu s
[OGL LOG][Proc: 0]global_index_init : 2 mu s
[OGL LOG][Proc: 0]update_host_matrix_data : 3597 mu s
[OGL LOG][Proc: 0]gather_initGuess : 4 mu s
[OGL LOG][Proc: 0]gather_RHS : 3465 mu s
[OGL LOG][Proc: 0]gather_global_matrix : 0 mu s
read from registry
[OGL LOG][Proc: 0]init_precond : 7 mu s
[OGL LOG][Proc: 0]generate_solver : 1 mu s
[OGL LOG][Proc: 0]solve : 196932 mu s
[OGL LOG][Proc: 0]retrieve_result_from_device : 1634 mu s
nonecudaGKOCG:  Solving for p, Initial residual = 0.808994, Final residual = 4.77156e-07, No Iterations 901
linear solve p 207728
time step continuity errors : sum local = 5.11532e-10, global = -1.34835e-20, cumulative = -6.17285e-21
[OGL LOG][Proc: 0]global_index_init : 34 mu s
[OGL LOG][Proc: 0]global_index_init : 1 mu s
[OGL LOG][Proc: 0]global_index_init : 1 mu s
[OGL LOG][Proc: 0]global_index_init : 1 mu s
[OGL LOG][Proc: 0]update_host_matrix_data : 3549 mu s
[OGL LOG][Proc: 0]gather_initGuess : 1 mu s
[OGL LOG][Proc: 0]gather_RHS : 2676 mu s
[OGL LOG][Proc: 0]gather_global_matrix : 0 mu s
read from registry
[OGL LOG][Proc: 0]init_precond : 6 mu s
[OGL LOG][Proc: 0]generate_solver : 1 mu s
[OGL LOG][Proc: 0]solve : 196873 mu s
[OGL LOG][Proc: 0]retrieve_result_from_device : 1672 mu s
nonecudaGKOCG:  Solving for p, Initial residual = 0.74964, Final residual = 4.06032e-07, No Iterations 901
linear solve p 206837
time step continuity errors : sum local = 4.4421e-10, global = -1.90319e-20, cumulative = -2.52047e-20
ExecutionTime = 3.82 s  ClockTime = 4 s

Time = 0.003

Courant Number mean: 0.0846038 max: 0.943672
DILUPBiCGStab:  Solving for Ux, Initial residual = 0.0646795, Final residual = 0.00170435, No Iterations 5
DILUPBiCGStab:  Solving for Uy, Initial residual = 0.226339, Final residual = 0.00427099, No Iterations 5
DILUPBiCGStab:  Solving for Uz, Initial residual = 0.765697, Final residual = 0.0189349, No Iterations 5
linear solve U 122546
[OGL LOG][Proc: 0]global_index_init : 20 mu s
[OGL LOG][Proc: 0]global_index_init : 1 mu s
[OGL LOG][Proc: 0]global_index_init : 2 mu s
[OGL LOG][Proc: 0]global_index_init : 1 mu s
[OGL LOG][Proc: 0]update_host_matrix_data : 3569 mu s
[OGL LOG][Proc: 0]gather_initGuess : 1 mu s
[OGL LOG][Proc: 0]gather_RHS : 5288 mu s
[OGL LOG][Proc: 0]gather_global_matrix : 0 mu s
read from registry
[OGL LOG][Proc: 0]init_precond : 8 mu s
[OGL LOG][Proc: 0]generate_solver : 1 mu s
[OGL LOG][Proc: 0]solve : 198357 mu s
[OGL LOG][Proc: 0]retrieve_result_from_device : 1714 mu s
nonecudaGKOCG:  Solving for p, Initial residual = 0.837716, Final residual = 4.1872e-07, No Iterations 901
linear solve p 210943
time step continuity errors : sum local = 4.14454e-10, global = 1.73508e-20, cumulative = -7.85397e-21
[OGL LOG][Proc: 0]global_index_init : 43 mu s
[OGL LOG][Proc: 0]global_index_init : 1 mu s
[OGL LOG][Proc: 0]global_index_init : 2 mu s
[OGL LOG][Proc: 0]global_index_init : 1 mu s
[OGL LOG][Proc: 0]update_host_matrix_data : 4529 mu s
[OGL LOG][Proc: 0]gather_initGuess : 1 mu s
[OGL LOG][Proc: 0]gather_RHS : 2647 mu s
[OGL LOG][Proc: 0]gather_global_matrix : 0 mu s
read from registry
[OGL LOG][Proc: 0]init_precond : 6 mu s
[OGL LOG][Proc: 0]generate_solver : 0 mu s
[OGL LOG][Proc: 0]solve : 196784 mu s
[OGL LOG][Proc: 0]retrieve_result_from_device : 1676 mu s
nonecudaGKOCG:  Solving for p, Initial residual = 0.805107, Final residual = 3.93572e-07, No Iterations 901
linear solve p 207731
time step continuity errors : sum local = 3.80108e-10, global = -1.65485e-20, cumulative = -2.44025e-20
ExecutionTime = 4.45 s  ClockTime = 5 s

End

Finalising parallel run
================================================================================
hash: 1b0a45e178d8f82f5005de762a62baee
/*---------------------------------------------------------------------------*\
| =========                 |                                                 |
| \\      /  F ield         | OpenFOAM: The Open Source CFD Toolbox           |
|  \\    /   O peration     | Version:  2112                                  |
|   \\  /    A nd           | Website:  www.openfoam.com                      |
|    \\/     M anipulation  |                                                 |
\*---------------------------------------------------------------------------*/
Build  : d44c8318f0-20220111 OPENFOAM=2112 version=v2112
Arch   : "LSB;label=32;scalar=64"
Exec   : icoFoam -parallel
Date   : Jan 29 2022
Time   : 14:18:36
Host   : hkn0434.localdomain
PID    : 3567661
I/O    : uncollated
Case   : /hkfs/home/project/hk-project-test-fine/eq4036/data/code/ogl_labbook/lidDrivenCavity/resolution/Variation_mesh/200/Variation_matrix_solver/CG_ISAI_CUDA/Variation_mpiRank/38/base
nProcs : 38
Hosts  :
(
    (hkn0434.localdomain 38)
)
Pstream initialized with:
    floatTransfer      : 0
    nProcsSimpleSum    : 0
    commsType          : nonBlocking
    polling iterations : 0
trapFpe: Floating point exception trapping enabled (FOAM_SIGFPE).
fileModificationChecking : Monitoring run-time modified files using timeStampMaster (fileModificationSkew 5, maxFileModificationPolls 20)
allowSystemOperations : Allowing user-supplied system call operations

// * * * * * * * * * * * * * * * * * * * * * * * * * * * * * * * * * * * * * //
Create time

Create mesh for time = 0


PISO: Operating solver in PISO mode

Reading transportProperties

Reading field p

Reading field U

Reading/calculating face flux field phi


Starting time loop

Time = 0.0005

Courant Number mean: 0 max: 0
DILUPBiCGStab:  Solving for Ux, Initial residual = 1, Final residual = 0.0226536, No Iterations 5
DILUPBiCGStab:  Solving for Uy:  solution singularity
DILUPBiCGStab:  Solving for Uz:  solution singularity
linear solve U 207199
[OGL LOG][Proc: 0]global_index_init : 63223 mu s
[OGL LOG][Proc: 0]global_index_init : 10 mu s
[OGL LOG][Proc: 0]global_index_init : 18 mu s
[OGL LOG][Proc: 0]global_index_init : 14 mu s
[OGL LOG][Proc: 0]init_host_sparsity_pattern : 2099537 mu s
[OGL LOG][Proc: 0]update_host_matrix_data : 9119 mu s
[OGL LOG][Proc: 0]convert_coo_to_csr : 2703 mu s
[OGL LOG][Proc: 0]gather_initGuess : 32423 mu s
[OGL LOG][Proc: 0]gather_RHS : 26006 mu s
[OGL LOG][Proc: 0]gather_global_matrix : 0 mu s
[OGL LOG][Proc: 0]init_precond : 496542 mu s
[OGL LOG][Proc: 0]generate_solver : 15 mu s
[OGL LOG][Proc: 0]solve : 2887866 mu s
[OGL LOG][Proc: 0]retrieve_result_from_device : 25005 mu s
ISAIcudaGKOCG:  Solving for p, Initial residual = 1, Final residual = 9.8097e-07, No Iterations 1287
linear solve p 13390390
time step continuity errors : sum local = 1.99796e-10, global = 3.64717e-21, cumulative = 3.64717e-21
[OGL LOG][Proc: 0]global_index_init : 185 mu s
[OGL LOG][Proc: 0]global_index_init : 17 mu s
[OGL LOG][Proc: 0]global_index_init : 11 mu s
[OGL LOG][Proc: 0]global_index_init : 14 mu s
[OGL LOG][Proc: 0]update_host_matrix_data : 13555 mu s
[OGL LOG][Proc: 0]gather_initGuess : 9 mu s
[OGL LOG][Proc: 0]gather_RHS : 29374 mu s
[OGL LOG][Proc: 0]gather_global_matrix : 0 mu s
read from registry
[OGL LOG][Proc: 0]init_precond : 21 mu s
[OGL LOG][Proc: 0]generate_solver : 0 mu s
[OGL LOG][Proc: 0]solve : 2835934 mu s
[OGL LOG][Proc: 0]retrieve_result_from_device : 24352 mu s
ISAIcudaGKOCG:  Solving for p, Initial residual = 0.821098, Final residual = 6.38921e-08, No Iterations 1327
linear solve p 2908916
time step continuity errors : sum local = 1.56473e-11, global = 9.46845e-23, cumulative = 3.74185e-21
ExecutionTime = 15 s  ClockTime = 18 s

Time = 0.001

Courant Number mean: 0.0390096 max: 0.865218
DILUPBiCGStab:  Solving for Ux, Initial residual = 0.117655, Final residual = 0.0140556, No Iterations 5
DILUPBiCGStab:  Solving for Uy, Initial residual = 0.506314, Final residual = 0.0544892, No Iterations 5
DILUPBiCGStab:  Solving for Uz, Initial residual = 0.939701, Final residual = 0.107517, No Iterations 5
linear solve U 408604
[OGL LOG][Proc: 0]global_index_init : 60 mu s
[OGL LOG][Proc: 0]global_index_init : 14 mu s
[OGL LOG][Proc: 0]global_index_init : 14 mu s
[OGL LOG][Proc: 0]global_index_init : 10 mu s
[OGL LOG][Proc: 0]update_host_matrix_data : 12560 mu s
[OGL LOG][Proc: 0]gather_initGuess : 1 mu s
[OGL LOG][Proc: 0]gather_RHS : 29580 mu s
[OGL LOG][Proc: 0]gather_global_matrix : 0 mu s
read from registry
[OGL LOG][Proc: 0]init_precond : 9 mu s
[OGL LOG][Proc: 0]generate_solver : 0 mu s
[OGL LOG][Proc: 0]solve : 2382073 mu s
[OGL LOG][Proc: 0]retrieve_result_from_device : 24129 mu s
ISAIcudaGKOCG:  Solving for p, Initial residual = 0.905712, Final residual = 2.60644e-07, No Iterations 1114
linear solve p 2454103
time step continuity errors : sum local = 1.44929e-10, global = -3.79479e-22, cumulative = 3.36237e-21
[OGL LOG][Proc: 0]global_index_init : 23 mu s
[OGL LOG][Proc: 0]global_index_init : 9 mu s
[OGL LOG][Proc: 0]global_index_init : 10 mu s
[OGL LOG][Proc: 0]global_index_init : 11 mu s
[OGL LOG][Proc: 0]update_host_matrix_data : 13642 mu s
[OGL LOG][Proc: 0]gather_initGuess : 2 mu s
[OGL LOG][Proc: 0]gather_RHS : 29512 mu s
[OGL LOG][Proc: 0]gather_global_matrix : 0 mu s
read from registry
[OGL LOG][Proc: 0]init_precond : 12 mu s
[OGL LOG][Proc: 0]generate_solver : 0 mu s
[OGL LOG][Proc: 0]solve : 1979506 mu s
[OGL LOG][Proc: 0]retrieve_result_from_device : 24745 mu s
ISAIcudaGKOCG:  Solving for p, Initial residual = 0.853849, Final residual = 2.49704e-07, No Iterations 925
linear solve p 2052975
time step continuity errors : sum local = 1.41649e-10, global = 3.78857e-21, cumulative = 7.15094e-21
ExecutionTime = 20.23 s  ClockTime = 23 s

Time = 0.0015

Courant Number mean: 0.0611853 max: 1.02198
DILUPBiCGStab:  Solving for Ux, Initial residual = 0.0682933, Final residual = 0.0060751, No Iterations 5
DILUPBiCGStab:  Solving for Uy, Initial residual = 0.35727, Final residual = 0.0230401, No Iterations 5
DILUPBiCGStab:  Solving for Uz, Initial residual = 0.790696, Final residual = 0.0726356, No Iterations 5
linear solve U 407304
[OGL LOG][Proc: 0]global_index_init : 130 mu s
[OGL LOG][Proc: 0]global_index_init : 13 mu s
[OGL LOG][Proc: 0]global_index_init : 14 mu s
[OGL LOG][Proc: 0]global_index_init : 9 mu s
[OGL LOG][Proc: 0]update_host_matrix_data : 13430 mu s
[OGL LOG][Proc: 0]gather_initGuess : 6 mu s
[OGL LOG][Proc: 0]gather_RHS : 29692 mu s
[OGL LOG][Proc: 0]gather_global_matrix : 0 mu s
read from registry
[OGL LOG][Proc: 0]init_precond : 9 mu s
[OGL LOG][Proc: 0]generate_solver : 1 mu s
[OGL LOG][Proc: 0]solve : 1902777 mu s
[OGL LOG][Proc: 0]retrieve_result_from_device : 24212 mu s
ISAIcudaGKOCG:  Solving for p, Initial residual = 0.939844, Final residual = 4.49431e-07, No Iterations 889
linear solve p 1975211
time step continuity errors : sum local = 3.11854e-10, global = -2.23282e-21, cumulative = 4.91813e-21
[OGL LOG][Proc: 0]global_index_init : 88 mu s
[OGL LOG][Proc: 0]global_index_init : 9 mu s
[OGL LOG][Proc: 0]global_index_init : 8 mu s
[OGL LOG][Proc: 0]global_index_init : 13 mu s
[OGL LOG][Proc: 0]update_host_matrix_data : 13163 mu s
[OGL LOG][Proc: 0]gather_initGuess : 1 mu s
[OGL LOG][Proc: 0]gather_RHS : 29684 mu s
[OGL LOG][Proc: 0]gather_global_matrix : 0 mu s
read from registry
[OGL LOG][Proc: 0]init_precond : 10 mu s
[OGL LOG][Proc: 0]generate_solver : 0 mu s
[OGL LOG][Proc: 0]solve : 1874466 mu s
[OGL LOG][Proc: 0]retrieve_result_from_device : 24606 mu s
ISAIcudaGKOCG:  Solving for p, Initial residual = 0.9053, Final residual = 8.73926e-07, No Iterations 876
linear solve p 1947198
time step continuity errors : sum local = 6.01457e-10, global = -2.48384e-21, cumulative = 2.43429e-21
ExecutionTime = 24.88 s  ClockTime = 28 s

End

Finalising parallel run
================================================================================
hash: bfc0556666b1feb03f9ed4ee47aec930
/*---------------------------------------------------------------------------*\
| =========                 |                                                 |
| \\      /  F ield         | OpenFOAM: The Open Source CFD Toolbox           |
|  \\    /   O peration     | Version:  2112                                  |
|   \\  /    A nd           | Website:  www.openfoam.com                      |
|    \\/     M anipulation  |                                                 |
\*---------------------------------------------------------------------------*/
Build  : d44c8318f0-20220111 OPENFOAM=2112 version=v2112
Arch   : "LSB;label=32;scalar=64"
Exec   : icoFoam -parallel
Date   : Jan 29 2022
Time   : 14:19:07
Host   : hkn0535.localdomain
PID    : 1771229
I/O    : uncollated
Case   : /hkfs/home/project/hk-project-test-fine/eq4036/data/code/ogl_labbook/lidDrivenCavity/resolution/Variation_mesh/100/Variation_matrix_solver/BiCGStab_ISAI_CUDA/Variation_mpiRank/38/base
nProcs : 38
Hosts  :
(
    (hkn0535.localdomain 38)
)
Pstream initialized with:
    floatTransfer      : 0
    nProcsSimpleSum    : 0
    commsType          : nonBlocking
    polling iterations : 0
trapFpe: Floating point exception trapping enabled (FOAM_SIGFPE).
fileModificationChecking : Monitoring run-time modified files using timeStampMaster (fileModificationSkew 5, maxFileModificationPolls 20)
allowSystemOperations : Allowing user-supplied system call operations

// * * * * * * * * * * * * * * * * * * * * * * * * * * * * * * * * * * * * * //
Create time

Create mesh for time = 0


PISO: Operating solver in PISO mode

Reading transportProperties

Reading field p

Reading field U

Reading/calculating face flux field phi


Starting time loop

Time = 0.001

Courant Number mean: 0 max: 0
DILUPBiCGStab:  Solving for Ux, Initial residual = 1, Final residual = 0.0113126, No Iterations 5
DILUPBiCGStab:  Solving for Uy:  solution singularity
DILUPBiCGStab:  Solving for Uz:  solution singularity
linear solve U 17890
[OGL LOG][Proc: 0]global_index_init : 75425 mu s
[OGL LOG][Proc: 0]global_index_init : 34 mu s
[OGL LOG][Proc: 0]global_index_init : 10 mu s
[OGL LOG][Proc: 0]global_index_init : 11 mu s
[OGL LOG][Proc: 0]init_host_sparsity_pattern : 92299 mu s
[OGL LOG][Proc: 0]update_host_matrix_data : 1090 mu s
[OGL LOG][Proc: 0]convert_coo_to_csr : 1108 mu s
[OGL LOG][Proc: 0]gather_initGuess : 4405 mu s
[OGL LOG][Proc: 0]gather_RHS : 2340 mu s
[OGL LOG][Proc: 0]gather_global_matrix : 4 mu s
[OGL LOG][Proc: 0]init_precond : 63853 mu s
[OGL LOG][Proc: 0]generate_solver : 7 mu s
[OGL LOG][Proc: 0]solve : 555288 mu s
[OGL LOG][Proc: 0]retrieve_result_from_device : 3151 mu s
ISAIcudaGKOBiCGStab:  Solving for p, Initial residual = 1, Final residual = 3.72073e-09, No Iterations 696
linear solve p 7066187
time step continuity errors : sum local = 8.32835e-09, global = -1.45253e-20, cumulative = -1.45253e-20
[OGL LOG][Proc: 0]global_index_init : 161 mu s
[OGL LOG][Proc: 0]global_index_init : 17 mu s
[OGL LOG][Proc: 0]global_index_init : 9 mu s
[OGL LOG][Proc: 0]global_index_init : 15 mu s
[OGL LOG][Proc: 0]update_host_matrix_data : 1073 mu s
[OGL LOG][Proc: 0]gather_initGuess : 5 mu s
[OGL LOG][Proc: 0]gather_RHS : 3700 mu s
[OGL LOG][Proc: 0]gather_global_matrix : 0 mu s
read from registry
[OGL LOG][Proc: 0]init_precond : 17 mu s
[OGL LOG][Proc: 0]generate_solver : 1 mu s
[OGL LOG][Proc: 0]solve : 387222 mu s
[OGL LOG][Proc: 0]retrieve_result_from_device : 3106 mu s
ISAIcudaGKOBiCGStab:  Solving for p, Initial residual = 0.777479, Final residual = 2.11446e-07, No Iterations 567
linear solve p 396474
time step continuity errors : sum local = 1.57857e-10, global = -9.65755e-21, cumulative = -2.41828e-20
ExecutionTime = 5.15 s  ClockTime = 8 s

Time = 0.002

Courant Number mean: 0.0552338 max: 0.807703
DILUPBiCGStab:  Solving for Ux, Initial residual = 0.137184, Final residual = 0.00605912, No Iterations 5
DILUPBiCGStab:  Solving for Uy, Initial residual = 0.431634, Final residual = 0.0172431, No Iterations 5
DILUPBiCGStab:  Solving for Uz, Initial residual = 0.955195, Final residual = 0.0356008, No Iterations 5
linear solve U 31076
[OGL LOG][Proc: 0]global_index_init : 38 mu s
[OGL LOG][Proc: 0]global_index_init : 8 mu s
[OGL LOG][Proc: 0]global_index_init : 13 mu s
[OGL LOG][Proc: 0]global_index_init : 11 mu s
[OGL LOG][Proc: 0]update_host_matrix_data : 1066 mu s
[OGL LOG][Proc: 0]gather_initGuess : 1 mu s
[OGL LOG][Proc: 0]gather_RHS : 3248 mu s
[OGL LOG][Proc: 0]gather_global_matrix : 0 mu s
read from registry
[OGL LOG][Proc: 0]init_precond : 7 mu s
[OGL LOG][Proc: 0]generate_solver : 1 mu s
[OGL LOG][Proc: 0]solve : 526898 mu s
[OGL LOG][Proc: 0]retrieve_result_from_device : 2763 mu s
ISAIcudaGKOBiCGStab:  Solving for p, Initial residual = 0.818384, Final residual = 4.18007e-07, No Iterations 770
linear solve p 535016
time step continuity errors : sum local = 4.71554e-10, global = -1.40089e-20, cumulative = -3.81918e-20
[OGL LOG][Proc: 0]global_index_init : 18 mu s
[OGL LOG][Proc: 0]global_index_init : 9 mu s
[OGL LOG][Proc: 0]global_index_init : 16 mu s
[OGL LOG][Proc: 0]global_index_init : 16 mu s
[OGL LOG][Proc: 0]update_host_matrix_data : 1285 mu s
[OGL LOG][Proc: 0]gather_initGuess : 1 mu s
[OGL LOG][Proc: 0]gather_RHS : 3417 mu s
[OGL LOG][Proc: 0]gather_global_matrix : 0 mu s
read from registry
[OGL LOG][Proc: 0]init_precond : 7 mu s
[OGL LOG][Proc: 0]generate_solver : 1 mu s
[OGL LOG][Proc: 0]solve : 378696 mu s
[OGL LOG][Proc: 0]retrieve_result_from_device : 1641 mu s
ISAIcudaGKOBiCGStab:  Solving for p, Initial residual = 0.758257, Final residual = 3.91982e-07, No Iterations 555
linear solve p 386122
time step continuity errors : sum local = 4.51854e-10, global = -1.73174e-20, cumulative = -5.55091e-20
ExecutionTime = 6.13 s  ClockTime = 9 s

Time = 0.003

Courant Number mean: 0.0841485 max: 0.943746
DILUPBiCGStab:  Solving for Ux, Initial residual = 0.0644957, Final residual = 0.00215472, No Iterations 5
DILUPBiCGStab:  Solving for Uy, Initial residual = 0.226245, Final residual = 0.0057423, No Iterations 5
DILUPBiCGStab:  Solving for Uz, Initial residual = 0.730638, Final residual = 0.0239016, No Iterations 5
linear solve U 29468
[OGL LOG][Proc: 0]global_index_init : 46 mu s
[OGL LOG][Proc: 0]global_index_init : 8 mu s
[OGL LOG][Proc: 0]global_index_init : 12 mu s
[OGL LOG][Proc: 0]global_index_init : 7 mu s
[OGL LOG][Proc: 0]update_host_matrix_data : 953 mu s
[OGL LOG][Proc: 0]gather_initGuess : 1 mu s
[OGL LOG][Proc: 0]gather_RHS : 3226 mu s
[OGL LOG][Proc: 0]gather_global_matrix : 0 mu s
read from registry
[OGL LOG][Proc: 0]init_precond : 7 mu s
[OGL LOG][Proc: 0]generate_solver : 0 mu s
[OGL LOG][Proc: 0]solve : 421495 mu s
[OGL LOG][Proc: 0]retrieve_result_from_device : 1950 mu s
ISAIcudaGKOBiCGStab:  Solving for p, Initial residual = 0.841209, Final residual = 5.51872e-07, No Iterations 616
linear solve p 428658
time step continuity errors : sum local = 5.59132e-10, global = -3.27298e-20, cumulative = -8.82389e-20
[OGL LOG][Proc: 0]global_index_init : 38 mu s
[OGL LOG][Proc: 0]global_index_init : 8 mu s
[OGL LOG][Proc: 0]global_index_init : 4 mu s
[OGL LOG][Proc: 0]global_index_init : 14 mu s
[OGL LOG][Proc: 0]update_host_matrix_data : 1077 mu s
[OGL LOG][Proc: 0]gather_initGuess : 1 mu s
[OGL LOG][Proc: 0]gather_RHS : 3255 mu s
[OGL LOG][Proc: 0]gather_global_matrix : 0 mu s
read from registry
[OGL LOG][Proc: 0]init_precond : 8 mu s
[OGL LOG][Proc: 0]generate_solver : 1 mu s
[OGL LOG][Proc: 0]solve : 491028 mu s
[OGL LOG][Proc: 0]retrieve_result_from_device : 1903 mu s
ISAIcudaGKOBiCGStab:  Solving for p, Initial residual = 0.807261, Final residual = 3.86593e-07, No Iterations 720
linear solve p 498293
time step continuity errors : sum local = 3.82148e-10, global = -2.87207e-20, cumulative = -1.1696e-19
ExecutionTime = 7.11 s  ClockTime = 10 s

End

Finalising parallel run
================================================================================
hash: 8cd408193417a99ce936339e8f139bc4
/*---------------------------------------------------------------------------*\
| =========                 |                                                 |
| \\      /  F ield         | OpenFOAM: The Open Source CFD Toolbox           |
|  \\    /   O peration     | Version:  2112                                  |
|   \\  /    A nd           | Website:  www.openfoam.com                      |
|    \\/     M anipulation  |                                                 |
\*---------------------------------------------------------------------------*/
Build  : d44c8318f0-20220111 OPENFOAM=2112 version=v2112
Arch   : "LSB;label=32;scalar=64"
Exec   : icoFoam -parallel
Date   : Jan 29 2022
Time   : 14:19:21
Host   : hkn0535.localdomain
PID    : 1772163
I/O    : uncollated
Case   : /hkfs/home/project/hk-project-test-fine/eq4036/data/code/ogl_labbook/lidDrivenCavity/resolution/Variation_mesh/100/Variation_matrix_solver/BiCGStab_ISAI_CUDA/Variation_mpiRank/8/base
nProcs : 8
Hosts  :
(
    (hkn0535.localdomain 8)
)
Pstream initialized with:
    floatTransfer      : 0
    nProcsSimpleSum    : 0
    commsType          : nonBlocking
    polling iterations : 0
trapFpe: Floating point exception trapping enabled (FOAM_SIGFPE).
fileModificationChecking : Monitoring run-time modified files using timeStampMaster (fileModificationSkew 5, maxFileModificationPolls 20)
allowSystemOperations : Allowing user-supplied system call operations

// * * * * * * * * * * * * * * * * * * * * * * * * * * * * * * * * * * * * * //
Create time

Create mesh for time = 0


PISO: Operating solver in PISO mode

Reading transportProperties

Reading field p

Reading field U

Reading/calculating face flux field phi


Starting time loop

Time = 0.001

Courant Number mean: 0 max: 0
DILUPBiCGStab:  Solving for Ux, Initial residual = 1, Final residual = 0.00976191, No Iterations 5
DILUPBiCGStab:  Solving for Uy:  solution singularity
DILUPBiCGStab:  Solving for Uz:  solution singularity
linear solve U 66962
[OGL LOG][Proc: 0]global_index_init : 54 mu s
[OGL LOG][Proc: 0]global_index_init : 2 mu s
[OGL LOG][Proc: 0]global_index_init : 1 mu s
[OGL LOG][Proc: 0]global_index_init : 1 mu s
[OGL LOG][Proc: 0]init_host_sparsity_pattern : 582743 mu s
[OGL LOG][Proc: 0]update_host_matrix_data : 5343 mu s
[OGL LOG][Proc: 0]convert_coo_to_csr : 923 mu s
[OGL LOG][Proc: 0]gather_initGuess : 4459 mu s
[OGL LOG][Proc: 0]gather_RHS : 1855 mu s
[OGL LOG][Proc: 0]gather_global_matrix : 4 mu s
[OGL LOG][Proc: 0]init_precond : 63912 mu s
[OGL LOG][Proc: 0]generate_solver : 7 mu s
[OGL LOG][Proc: 0]solve : 1216126 mu s
[OGL LOG][Proc: 0]retrieve_result_from_device : 2367 mu s
ISAIcudaGKOBiCGStab:  Solving for p, Initial residual = 1, Final residual = 2.57632e-07, No Iterations 1570
linear solve p 3722549
time step continuity errors : sum local = 3.53917e-09, global = 6.22381e-21, cumulative = 6.22381e-21
[OGL LOG][Proc: 0]global_index_init : 35 mu s
[OGL LOG][Proc: 0]global_index_init : 1 mu s
[OGL LOG][Proc: 0]global_index_init : 2 mu s
[OGL LOG][Proc: 0]global_index_init : 1 mu s
[OGL LOG][Proc: 0]update_host_matrix_data : 3509 mu s
[OGL LOG][Proc: 0]gather_initGuess : 6 mu s
[OGL LOG][Proc: 0]gather_RHS : 3942 mu s
[OGL LOG][Proc: 0]gather_global_matrix : 0 mu s
read from registry
[OGL LOG][Proc: 0]init_precond : 16 mu s
[OGL LOG][Proc: 0]generate_solver : 1 mu s
[OGL LOG][Proc: 0]solve : 497113 mu s
[OGL LOG][Proc: 0]retrieve_result_from_device : 1868 mu s
ISAIcudaGKOBiCGStab:  Solving for p, Initial residual = 0.777377, Final residual = 4.06787e-08, No Iterations 744
linear solve p 508620
time step continuity errors : sum local = 2.97263e-11, global = -1.65827e-21, cumulative = 4.56554e-21
ExecutionTime = 4.52 s  ClockTime = 5 s

Time = 0.002

Courant Number mean: 0.0555224 max: 0.807219
DILUPBiCGStab:  Solving for Ux, Initial residual = 0.137481, Final residual = 0.00480444, No Iterations 5
DILUPBiCGStab:  Solving for Uy, Initial residual = 0.431367, Final residual = 0.0127824, No Iterations 5
DILUPBiCGStab:  Solving for Uz, Initial residual = 0.97357, Final residual = 0.0274114, No Iterations 5
linear solve U 123343
[OGL LOG][Proc: 0]global_index_init : 14 mu s
[OGL LOG][Proc: 0]global_index_init : 1 mu s
[OGL LOG][Proc: 0]global_index_init : 2 mu s
[OGL LOG][Proc: 0]global_index_init : 1 mu s
[OGL LOG][Proc: 0]update_host_matrix_data : 4494 mu s
[OGL LOG][Proc: 0]gather_initGuess : 1 mu s
[OGL LOG][Proc: 0]gather_RHS : 3417 mu s
[OGL LOG][Proc: 0]gather_global_matrix : 0 mu s
read from registry
[OGL LOG][Proc: 0]init_precond : 8 mu s
[OGL LOG][Proc: 0]generate_solver : 0 mu s
[OGL LOG][Proc: 0]solve : 5637615 mu s
[OGL LOG][Proc: 0]retrieve_result_from_device : 1737 mu s
ISAIcudaGKOBiCGStab:  Solving for p, Initial residual = 0.808993, Final residual = 8.50274e-07, No Iterations 8468
linear solve p 5649761
time step continuity errors : sum local = 9.11536e-10, global = -1.32446e-20, cumulative = -8.67909e-21
[OGL LOG][Proc: 0]global_index_init : 27 mu s
[OGL LOG][Proc: 0]global_index_init : 2 mu s
[OGL LOG][Proc: 0]global_index_init : 4 mu s
[OGL LOG][Proc: 0]global_index_init : 1 mu s
[OGL LOG][Proc: 0]update_host_matrix_data : 4487 mu s
[OGL LOG][Proc: 0]gather_initGuess : 1 mu s
[OGL LOG][Proc: 0]gather_RHS : 2711 mu s
[OGL LOG][Proc: 0]gather_global_matrix : 0 mu s
read from registry
[OGL LOG][Proc: 0]init_precond : 7 mu s
[OGL LOG][Proc: 0]generate_solver : 1 mu s
[OGL LOG][Proc: 0]solve : 2349654 mu s
[OGL LOG][Proc: 0]retrieve_result_from_device : 1464 mu s
ISAIcudaGKOBiCGStab:  Solving for p, Initial residual = 0.74964, Final residual = 4.00966e-36, No Iterations 3549
linear solve p 2360655
time step continuity errors : sum local = 1.07363e-15, global = -7.11273e-21, cumulative = -1.57918e-20
ExecutionTime = 12.75 s  ClockTime = 13 s

Time = 0.003

Courant Number mean: 0.0846038 max: 0.943672
DILUPBiCGStab:  Solving for Ux, Initial residual = 0.0646795, Final residual = 0.00170435, No Iterations 5
DILUPBiCGStab:  Solving for Uy, Initial residual = 0.226339, Final residual = 0.00427101, No Iterations 5
DILUPBiCGStab:  Solving for Uz, Initial residual = 0.765697, Final residual = 0.0189348, No Iterations 5
linear solve U 124953
[OGL LOG][Proc: 0]global_index_init : 10 mu s
[OGL LOG][Proc: 0]global_index_init : 2 mu s
[OGL LOG][Proc: 0]global_index_init : 2 mu s
[OGL LOG][Proc: 0]global_index_init : 1 mu s
[OGL LOG][Proc: 0]update_host_matrix_data : 3616 mu s
[OGL LOG][Proc: 0]gather_initGuess : 1 mu s
[OGL LOG][Proc: 0]gather_RHS : 2755 mu s
[OGL LOG][Proc: 0]gather_global_matrix : 0 mu s
read from registry
[OGL LOG][Proc: 0]init_precond : 7 mu s
[OGL LOG][Proc: 0]generate_solver : 0 mu s
[OGL LOG][Proc: 0]solve : 983739 mu s
[OGL LOG][Proc: 0]retrieve_result_from_device : 1480 mu s
ISAIcudaGKOBiCGStab:  Solving for p, Initial residual = 0.837715, Final residual = 8.69967e-16, No Iterations 1481
linear solve p 993604
time step continuity errors : sum local = 1.89392e-15, global = 6.26411e-21, cumulative = -9.52771e-21
[OGL LOG][Proc: 0]global_index_init : 5 mu s
[OGL LOG][Proc: 0]global_index_init : 1 mu s
[OGL LOG][Proc: 0]global_index_init : 1 mu s
[OGL LOG][Proc: 0]global_index_init : 1 mu s
[OGL LOG][Proc: 0]update_host_matrix_data : 4467 mu s
[OGL LOG][Proc: 0]gather_initGuess : 1 mu s
[OGL LOG][Proc: 0]gather_RHS : 2716 mu s
[OGL LOG][Proc: 0]gather_global_matrix : 0 mu s
read from registry
[OGL LOG][Proc: 0]init_precond : 7 mu s
[OGL LOG][Proc: 0]generate_solver : 0 mu s
[OGL LOG][Proc: 0]solve : 473049 mu s
[OGL LOG][Proc: 0]retrieve_result_from_device : 1832 mu s
ISAIcudaGKOBiCGStab:  Solving for p, Initial residual = 0.805106, Final residual = 6.50724e-07, No Iterations 708
linear solve p 484032
time step continuity errors : sum local = 6.28468e-10, global = 1.60727e-21, cumulative = -7.92044e-21
ExecutionTime = 14.43 s  ClockTime = 15 s

End

Finalising parallel run
================================================================================
hash: 3001bc897f0b7da110759de85336ee4f
/*---------------------------------------------------------------------------*\
| =========                 |                                                 |
| \\      /  F ield         | OpenFOAM: The Open Source CFD Toolbox           |
|  \\    /   O peration     | Version:  2112                                  |
|   \\  /    A nd           | Website:  www.openfoam.com                      |
|    \\/     M anipulation  |                                                 |
\*---------------------------------------------------------------------------*/
Build  : d44c8318f0-20220111 OPENFOAM=2112 version=v2112
Arch   : "LSB;label=32;scalar=64"
Exec   : icoFoam -parallel
Date   : Jan 29 2022
Time   : 14:19:09
Host   : hkn0434.localdomain
PID    : 3568636
I/O    : uncollated
Case   : /hkfs/home/project/hk-project-test-fine/eq4036/data/code/ogl_labbook/lidDrivenCavity/resolution/Variation_mesh/200/Variation_matrix_solver/CG_ISAI_CUDA/Variation_mpiRank/8/base
nProcs : 8
Hosts  :
(
    (hkn0434.localdomain 8)
)
Pstream initialized with:
    floatTransfer      : 0
    nProcsSimpleSum    : 0
    commsType          : nonBlocking
    polling iterations : 0
trapFpe: Floating point exception trapping enabled (FOAM_SIGFPE).
fileModificationChecking : Monitoring run-time modified files using timeStampMaster (fileModificationSkew 5, maxFileModificationPolls 20)
allowSystemOperations : Allowing user-supplied system call operations

// * * * * * * * * * * * * * * * * * * * * * * * * * * * * * * * * * * * * * //
Create time

Create mesh for time = 0


PISO: Operating solver in PISO mode

Reading transportProperties

Reading field p

Reading field U

Reading/calculating face flux field phi


Starting time loop

Time = 0.0005

Courant Number mean: 0 max: 0
DILUPBiCGStab:  Solving for Ux, Initial residual = 1, Final residual = 0.0216481, No Iterations 5
DILUPBiCGStab:  Solving for Uy:  solution singularity
DILUPBiCGStab:  Solving for Uz:  solution singularity
linear solve U 655354
[OGL LOG][Proc: 0]global_index_init : 45 mu s
[OGL LOG][Proc: 0]global_index_init : 1 mu s
[OGL LOG][Proc: 0]global_index_init : 2 mu s
[OGL LOG][Proc: 0]global_index_init : 2 mu s
[OGL LOG][Proc: 0]init_host_sparsity_pattern : 19710627 mu s
[OGL LOG][Proc: 0]update_host_matrix_data : 44920 mu s
[OGL LOG][Proc: 0]convert_coo_to_csr : 2593 mu s
[OGL LOG][Proc: 0]gather_initGuess : 31717 mu s
[OGL LOG][Proc: 0]gather_RHS : 25608 mu s
[OGL LOG][Proc: 0]gather_global_matrix : 0 mu s
[OGL LOG][Proc: 0]init_precond : 488703 mu s
[OGL LOG][Proc: 0]generate_solver : 9 mu s
[OGL LOG][Proc: 0]solve : 2869006 mu s
[OGL LOG][Proc: 0]retrieve_result_from_device : 24158 mu s
ISAIcudaGKOCG:  Solving for p, Initial residual = 1, Final residual = 9.89161e-07, No Iterations 1278
linear solve p 25260787
time step continuity errors : sum local = 1.87191e-10, global = -3.81191e-21, cumulative = -3.81191e-21
[OGL LOG][Proc: 0]global_index_init : 152 mu s
[OGL LOG][Proc: 0]global_index_init : 2 mu s
[OGL LOG][Proc: 0]global_index_init : 6 mu s
[OGL LOG][Proc: 0]global_index_init : 2 mu s
[OGL LOG][Proc: 0]update_host_matrix_data : 35010 mu s
[OGL LOG][Proc: 0]gather_initGuess : 7 mu s
[OGL LOG][Proc: 0]gather_RHS : 28430 mu s
[OGL LOG][Proc: 0]gather_global_matrix : 0 mu s
read from registry
[OGL LOG][Proc: 0]init_precond : 22 mu s
[OGL LOG][Proc: 0]generate_solver : 1 mu s
[OGL LOG][Proc: 0]solve : 2729592 mu s
[OGL LOG][Proc: 0]retrieve_result_from_device : 24832 mu s
ISAIcudaGKOCG:  Solving for p, Initial residual = 0.81518, Final residual = 8.41e-07, No Iterations 1276
linear solve p 2832029
time step continuity errors : sum local = 1.93317e-10, global = -1.67157e-21, cumulative = -5.48348e-21
ExecutionTime = 32.63 s  ClockTime = 33 s

Time = 0.001

Courant Number mean: 0.0392461 max: 0.865942
DILUPBiCGStab:  Solving for Ux, Initial residual = 0.117616, Final residual = 0.0131468, No Iterations 5
DILUPBiCGStab:  Solving for Uy, Initial residual = 0.506037, Final residual = 0.0494692, No Iterations 5
DILUPBiCGStab:  Solving for Uz, Initial residual = 0.96068, Final residual = 0.101188, No Iterations 5
linear solve U 1314747
[OGL LOG][Proc: 0]global_index_init : 10 mu s
[OGL LOG][Proc: 0]global_index_init : 2 mu s
[OGL LOG][Proc: 0]global_index_init : 3 mu s
[OGL LOG][Proc: 0]global_index_init : 2 mu s
[OGL LOG][Proc: 0]update_host_matrix_data : 34586 mu s
[OGL LOG][Proc: 0]gather_initGuess : 1 mu s
[OGL LOG][Proc: 0]gather_RHS : 28466 mu s
[OGL LOG][Proc: 0]gather_global_matrix : 0 mu s
read from registry
[OGL LOG][Proc: 0]init_precond : 10 mu s
[OGL LOG][Proc: 0]generate_solver : 1 mu s
[OGL LOG][Proc: 0]solve : 2739016 mu s
[OGL LOG][Proc: 0]retrieve_result_from_device : 23983 mu s
ISAIcudaGKOCG:  Solving for p, Initial residual = 0.897317, Final residual = 8.17965e-07, No Iterations 1276
linear solve p 2840144
time step continuity errors : sum local = 4.17147e-10, global = -3.91712e-21, cumulative = -9.4006e-21
[OGL LOG][Proc: 0]global_index_init : 8 mu s
[OGL LOG][Proc: 0]global_index_init : 2 mu s
[OGL LOG][Proc: 0]global_index_init : 3 mu s
[OGL LOG][Proc: 0]global_index_init : 1 mu s
[OGL LOG][Proc: 0]update_host_matrix_data : 34539 mu s
[OGL LOG][Proc: 0]gather_initGuess : 1 mu s
[OGL LOG][Proc: 0]gather_RHS : 28670 mu s
[OGL LOG][Proc: 0]gather_global_matrix : 0 mu s
read from registry
[OGL LOG][Proc: 0]init_precond : 9 mu s
[OGL LOG][Proc: 0]generate_solver : 1 mu s
[OGL LOG][Proc: 0]solve : 2730691 mu s
[OGL LOG][Proc: 0]retrieve_result_from_device : 24300 mu s
ISAIcudaGKOCG:  Solving for p, Initial residual = 0.846842, Final residual = 7.73389e-07, No Iterations 1276
linear solve p 2832206
time step continuity errors : sum local = 4.02269e-10, global = 1.02659e-21, cumulative = -8.37402e-21
ExecutionTime = 40.47 s  ClockTime = 41 s

Time = 0.0015

Courant Number mean: 0.0615403 max: 1.02143
DILUPBiCGStab:  Solving for Ux, Initial residual = 0.0685124, Final residual = 0.00554306, No Iterations 5
DILUPBiCGStab:  Solving for Uy, Initial residual = 0.357897, Final residual = 0.0211478, No Iterations 5
DILUPBiCGStab:  Solving for Uz, Initial residual = 0.820139, Final residual = 0.0702935, No Iterations 5
linear solve U 1317657
[OGL LOG][Proc: 0]global_index_init : 9 mu s
[OGL LOG][Proc: 0]global_index_init : 2 mu s
[OGL LOG][Proc: 0]global_index_init : 3 mu s
[OGL LOG][Proc: 0]global_index_init : 2 mu s
[OGL LOG][Proc: 0]update_host_matrix_data : 34775 mu s
[OGL LOG][Proc: 0]gather_initGuess : 2 mu s
[OGL LOG][Proc: 0]gather_RHS : 28472 mu s
[OGL LOG][Proc: 0]gather_global_matrix : 0 mu s
read from registry
[OGL LOG][Proc: 0]init_precond : 10 mu s
[OGL LOG][Proc: 0]generate_solver : 0 mu s
[OGL LOG][Proc: 0]solve : 2195097 mu s
[OGL LOG][Proc: 0]retrieve_result_from_device : 24146 mu s
ISAIcudaGKOCG:  Solving for p, Initial residual = 0.937568, Final residual = 1.21054e-07, No Iterations 1021
linear solve p 2297586
time step continuity errors : sum local = 8.03127e-11, global = 2.36585e-21, cumulative = -6.00816e-21
[OGL LOG][Proc: 0]global_index_init : 51 mu s
[OGL LOG][Proc: 0]global_index_init : 2 mu s
[OGL LOG][Proc: 0]global_index_init : 2 mu s
[OGL LOG][Proc: 0]global_index_init : 2 mu s
[OGL LOG][Proc: 0]update_host_matrix_data : 35399 mu s
[OGL LOG][Proc: 0]gather_initGuess : 1 mu s
[OGL LOG][Proc: 0]gather_RHS : 28619 mu s
[OGL LOG][Proc: 0]gather_global_matrix : 0 mu s
read from registry
[OGL LOG][Proc: 0]init_precond : 10 mu s
[OGL LOG][Proc: 0]generate_solver : 1 mu s
[OGL LOG][Proc: 0]solve : 1886167 mu s
[OGL LOG][Proc: 0]retrieve_result_from_device : 24512 mu s
ISAIcudaGKOCG:  Solving for p, Initial residual = 0.905008, Final residual = 7.59813e-07, No Iterations 881
linear solve p 1988638
time step continuity errors : sum local = 5.00096e-10, global = -3.4546e-21, cumulative = -9.46276e-21
ExecutionTime = 46.93 s  ClockTime = 47 s

End

Finalising parallel run
================================================================================
hash: f87cb53f0479a824a140f92e6fb1273d
/*---------------------------------------------------------------------------*\
| =========                 |                                                 |
[...]
[OGL LOG][Proc: 0]global_index_init : 3 mu s
[OGL LOG][Proc: 0]global_index_init : 2 mu s
[OGL LOG][Proc: 0]global_index_init : 2 mu s
[OGL LOG][Proc: 0]update_host_matrix_data : 344960 mu s
[OGL LOG][Proc: 0]gather_initGuess : 3 mu s
[OGL LOG][Proc: 0]gather_RHS : 225618 mu s
[OGL LOG][Proc: 0]gather_global_matrix : 0 mu s
read from registry
[OGL LOG][Proc: 0]init_precond : 14 mu s
[OGL LOG][Proc: 0]generate_solver : 2 mu s
[OGL LOG][Proc: 0]solve : 42116044 mu s
[OGL LOG][Proc: 0]retrieve_result_from_device : 194067 mu s
nonecudaGKOCG:  Solving for p, Initial residual = 0.939412, Final residual = 1.92926e-07, No Iterations 3751
linear solve p 43014694
time step continuity errors : sum local = 4.20129e-11, global = -1.16308e-22, cumulative = -8.92591e-22
[OGL LOG][Proc: 0]global_index_init : 5362 mu s
[OGL LOG][Proc: 0]global_index_init : 1 mu s
[OGL LOG][Proc: 0]global_index_init : 1 mu s
[OGL LOG][Proc: 0]global_index_init : 2 mu s
[OGL LOG][Proc: 0]update_host_matrix_data : 344713 mu s
[OGL LOG][Proc: 0]gather_initGuess : 3 mu s
[OGL LOG][Proc: 0]gather_RHS : 225690 mu s
[OGL LOG][Proc: 0]gather_global_matrix : 0 mu s
read from registry
[OGL LOG][Proc: 0]init_precond : 13 mu s
[OGL LOG][Proc: 0]generate_solver : 1 mu s
[OGL LOG][Proc: 0]solve : 42113668 mu s
[OGL LOG][Proc: 0]retrieve_result_from_device : 191887 mu s
nonecudaGKOCG:  Solving for p, Initial residual = 0.894577, Final residual = 1.81217e-07, No Iterations 3751
linear solve p 43009702
time step continuity errors : sum local = 4.02425e-11, global = -4.33109e-22, cumulative = -1.3257e-21
ExecutionTime = 860.84 s  ClockTime = 863 s

Time = 0.00075

Courant Number mean: 0.0405234 max: 1.11034
DILUPBiCGStab:  Solving for Ux, Initial residual = 0.0634788, Final residual = 0.0117727, No Iterations 5
DILUPBiCGStab:  Solving for Uy, Initial residual = 0.447073, Final residual = 0.0596303, No Iterations 5
DILUPBiCGStab:  Solving for Uz, Initial residual = 0.866448, Final residual = 0.165243, No Iterations 5
linear solve U 11337796
[OGL LOG][Proc: 0]global_index_init : 5823 mu s
[OGL LOG][Proc: 0]global_index_init : 2 mu s
[OGL LOG][Proc: 0]global_index_init : 2 mu s
[OGL LOG][Proc: 0]global_index_init : 1 mu s
[OGL LOG][Proc: 0]update_host_matrix_data : 345002 mu s
[OGL LOG][Proc: 0]gather_initGuess : 1 mu s
[OGL LOG][Proc: 0]gather_RHS : 226544 mu s
[OGL LOG][Proc: 0]gather_global_matrix : 0 mu s
read from registry
[OGL LOG][Proc: 0]init_precond : 14 mu s
[OGL LOG][Proc: 0]generate_solver : 2 mu s
[OGL LOG][Proc: 0]solve : 42112065 mu s
[OGL LOG][Proc: 0]retrieve_result_from_device : 192111 mu s
nonecudaGKOCG:  Solving for p, Initial residual = 0.970319, Final residual = 1.69872e-07, No Iterations 3751
linear solve p 43009665
time step continuity errors : sum local = 6.2927e-11, global = -1.01416e-21, cumulative = -2.33986e-21
[OGL LOG][Proc: 0]global_index_init : 6124 mu s
[OGL LOG][Proc: 0]global_index_init : 2 mu s
[OGL LOG][Proc: 0]global_index_init : 1 mu s
[OGL LOG][Proc: 0]global_index_init : 2 mu s
[OGL LOG][Proc: 0]update_host_matrix_data : 345280 mu s
[OGL LOG][Proc: 0]gather_initGuess : 3 mu s
[OGL LOG][Proc: 0]gather_RHS : 228041 mu s
[OGL LOG][Proc: 0]gather_global_matrix : 0 mu s
read from registry
[OGL LOG][Proc: 0]init_precond : 16 mu s
[OGL LOG][Proc: 0]generate_solver : 1 mu s
[OGL LOG][Proc: 0]solve : 42117804 mu s
[OGL LOG][Proc: 0]retrieve_result_from_device : 192361 mu s
nonecudaGKOCG:  Solving for p, Initial residual = 0.933815, Final residual = 1.64817e-07, No Iterations 3751
linear solve p 43018013
time step continuity errors : sum local = 6.12811e-11, global = 9.22005e-22, cumulative = -1.41786e-21
ExecutionTime = 966.49 s  ClockTime = 969 s

End

Finalising parallel run
================================================================================
hash: a8cbd00f52d6b3f1f39e80add0d9cd24
/*---------------------------------------------------------------------------*\
| =========                 |                                                 |
| \\      /  F ield         | OpenFOAM: The Open Source CFD Toolbox           |
|  \\    /   O peration     | Version:  2112                                  |
|   \\  /    A nd           | Website:  www.openfoam.com                      |
|    \\/     M anipulation  |                                                 |
\*---------------------------------------------------------------------------*/
Build  : d44c8318f0-20220111 OPENFOAM=2112 version=v2112
Arch   : "LSB;label=32;scalar=64"
Exec   : icoFoam -parallel
Date   : Jan 29 2022
Time   : 15:14:19
Host   : hkn0718.localdomain
PID    : 2871137
I/O    : uncollated
Case   : /hkfs/home/project/hk-project-test-fine/eq4036/data/code/ogl_labbook/lidDrivenCavity/resolution/Variation_mesh/300/Variation_matrix_solver/CG_NoPrecond_CUDA/Variation_mpiRank/8/base
nProcs : 8
Hosts  :
(
    (hkn0718.localdomain 8)
)
Pstream initialized with:
    floatTransfer      : 0
    nProcsSimpleSum    : 0
    commsType          : nonBlocking
    polling iterations : 0
trapFpe: Floating point exception trapping enabled (FOAM_SIGFPE).
fileModificationChecking : Monitoring run-time modified files using timeStampMaster (fileModificationSkew 5, maxFileModificationPolls 20)
allowSystemOperations : Allowing user-supplied system call operations

// * * * * * * * * * * * * * * * * * * * * * * * * * * * * * * * * * * * * * //
Create time

Create mesh for time = 0


PISO: Operating solver in PISO mode

Reading transportProperties

Reading field p

Reading field U

Reading/calculating face flux field phi


Starting time loop

Time = 0.000333333

Courant Number mean: 0 max: 0
DILUPBiCGStab:  Solving for Ux, Initial residual = 1, Final residual = 0.0285744, No Iterations 5
DILUPBiCGStab:  Solving for Uy:  solution singularity
DILUPBiCGStab:  Solving for Uz:  solution singularity
linear solve U 2269653
[OGL LOG][Proc: 0]global_index_init : 11505 mu s
[OGL LOG][Proc: 0]global_index_init : 2 mu s
[OGL LOG][Proc: 0]global_index_init : 1 mu s
[OGL LOG][Proc: 0]global_index_init : 1 mu s
[OGL LOG][Proc: 0]init_host_sparsity_pattern : 122494635 mu s
[OGL LOG][Proc: 0]update_host_matrix_data : 166502 mu s
[OGL LOG][Proc: 0]convert_coo_to_csr : 7067 mu s
[OGL LOG][Proc: 0]gather_initGuess : 102238 mu s
[OGL LOG][Proc: 0]gather_RHS : 88814 mu s
[OGL LOG][Proc: 0]gather_global_matrix : 0 mu s
[OGL LOG][Proc: 0]init_precond : 59 mu s
[OGL LOG][Proc: 0]generate_solver : 12 mu s
[OGL LOG][Proc: 0]solve : 13176499 mu s
[OGL LOG][Proc: 0]retrieve_result_from_device : 71545 mu s
nonecudaGKOCG:  Solving for p, Initial residual = 1, Final residual = 9.82416e-07, No Iterations 2637
linear solve p 171057750
time step continuity errors : sum local = 9.27754e-11, global = 3.51101e-21, cumulative = 3.51101e-21
[OGL LOG][Proc: 0]global_index_init : 437 mu s
[OGL LOG][Proc: 0]global_index_init : 2 mu s
[OGL LOG][Proc: 0]global_index_init : 2 mu s
[OGL LOG][Proc: 0]global_index_init : 1 mu s
[OGL LOG][Proc: 0]update_host_matrix_data : 129004 mu s
[OGL LOG][Proc: 0]gather_initGuess : 7 mu s
[OGL LOG][Proc: 0]gather_RHS : 89553 mu s
[OGL LOG][Proc: 0]gather_global_matrix : 0 mu s
read from registry
[OGL LOG][Proc: 0]init_precond : 23 mu s
[OGL LOG][Proc: 0]generate_solver : 1 mu s
[OGL LOG][Proc: 0]solve : 12586358 mu s
[OGL LOG][Proc: 0]retrieve_result_from_device : 77748 mu s
nonecudaGKOCG:  Solving for p, Initial residual = 0.827887, Final residual = 9.70035e-07, No Iterations 2626
linear solve p 12935505
time step continuity errors : sum local = 1.09913e-10, global = 9.87007e-23, cumulative = 3.60971e-21
ExecutionTime = 200.87 s  ClockTime = 201 s

Time = 0.000666667

Courant Number mean: 0.0305465 max: 0.890858
DILUPBiCGStab:  Solving for Ux, Initial residual = 0.106029, Final residual = 0.0187003, No Iterations 5
DILUPBiCGStab:  Solving for Uy, Initial residual = 0.546324, Final residual = 0.0883789, No Iterations 5
DILUPBiCGStab:  Solving for Uz, Initial residual = 0.963977, Final residual = 0.176992, No Iterations 5
linear solve U 4593543
[OGL LOG][Proc: 0]global_index_init : 259 mu s
[OGL LOG][Proc: 0]global_index_init : 2 mu s
[OGL LOG][Proc: 0]global_index_init : 1 mu s
[OGL LOG][Proc: 0]global_index_init : 1 mu s
[OGL LOG][Proc: 0]update_host_matrix_data : 137490 mu s
[OGL LOG][Proc: 0]gather_initGuess : 4 mu s
[OGL LOG][Proc: 0]gather_RHS : 89968 mu s
[OGL LOG][Proc: 0]gather_global_matrix : 0 mu s
read from registry
[OGL LOG][Proc: 0]init_precond : 12 mu s
[OGL LOG][Proc: 0]generate_solver : 1 mu s
[OGL LOG][Proc: 0]solve : 12589423 mu s
[OGL LOG][Proc: 0]retrieve_result_from_device : 77706 mu s
nonecudaGKOCG:  Solving for p, Initial residual = 0.926023, Final residual = 4.85053e-07, No Iterations 2626
linear solve p 12943781
time step continuity errors : sum local = 1.5363e-10, global = -8.90306e-22, cumulative = 2.7194e-21
[OGL LOG][Proc: 0]global_index_init : 273 mu s
[OGL LOG][Proc: 0]global_index_init : 1 mu s
[OGL LOG][Proc: 0]global_index_init : 1 mu s
[OGL LOG][Proc: 0]global_index_init : 1 mu s
[OGL LOG][Proc: 0]update_host_matrix_data : 125363 mu s
[OGL LOG][Proc: 0]gather_initGuess : 1 mu s
[OGL LOG][Proc: 0]gather_RHS : 89442 mu s
[OGL LOG][Proc: 0]gather_global_matrix : 0 mu s
read from registry
[OGL LOG][Proc: 0]init_precond : 10 mu s
[OGL LOG][Proc: 0]generate_solver : 2 mu s
[OGL LOG][Proc: 0]solve : 12586469 mu s
[OGL LOG][Proc: 0]retrieve_result_from_device : 78391 mu s
nonecudaGKOCG:  Solving for p, Initial residual = 0.879205, Final residual = 4.43186e-07, No Iterations 2626
linear solve p 12924365
time step continuity errors : sum local = 1.43158e-10, global = -9.82281e-22, cumulative = 1.73712e-21
ExecutionTime = 234.51 s  ClockTime = 235 s

Time = 0.001

Courant Number mean: 0.0488089 max: 1.07263
DILUPBiCGStab:  Solving for Ux, Initial residual = 0.0665545, Final residual = 0.00905679, No Iterations 5
DILUPBiCGStab:  Solving for Uy, Initial residual = 0.417099, Final residual = 0.0410158, No Iterations 5
DILUPBiCGStab:  Solving for Uz, Initial residual = 0.846608, Final residual = 0.12139, No Iterations 5
linear solve U 4592208
[OGL LOG][Proc: 0]global_index_init : 365 mu s
[OGL LOG][Proc: 0]global_index_init : 3 mu s
[OGL LOG][Proc: 0]global_index_init : 3 mu s
[OGL LOG][Proc: 0]global_index_init : 2 mu s
[OGL LOG][Proc: 0]update_host_matrix_data : 137043 mu s
[OGL LOG][Proc: 0]gather_initGuess : 1 mu s
[OGL LOG][Proc: 0]gather_RHS : 91126 mu s
[OGL LOG][Proc: 0]gather_global_matrix : 0 mu s
read from registry
[OGL LOG][Proc: 0]init_precond : 10 mu s
[OGL LOG][Proc: 0]generate_solver : 1 mu s
[OGL LOG][Proc: 0]solve : 12590346 mu s
[OGL LOG][Proc: 0]retrieve_result_from_device : 80397 mu s
nonecudaGKOCG:  Solving for p, Initial residual = 0.960855, Final residual = 5.50002e-07, No Iterations 2626
linear solve p 12946124
time step continuity errors : sum local = 2.67744e-10, global = -2.00741e-21, cumulative = -2.70294e-22
[OGL LOG][Proc: 0]global_index_init : 390 mu s
[OGL LOG][Proc: 0]global_index_init : 1 mu s
[OGL LOG][Proc: 0]global_index_init : 1 mu s
[OGL LOG][Proc: 0]global_index_init : 1 mu s
[OGL LOG][Proc: 0]update_host_matrix_data : 123626 mu s
[OGL LOG][Proc: 0]gather_initGuess : 1 mu s
[OGL LOG][Proc: 0]gather_RHS : 92886 mu s
[OGL LOG][Proc: 0]gather_global_matrix : 0 mu s
read from registry
[OGL LOG][Proc: 0]init_precond : 8 mu s
[OGL LOG][Proc: 0]generate_solver : 1 mu s
[OGL LOG][Proc: 0]solve : 12586191 mu s
[OGL LOG][Proc: 0]retrieve_result_from_device : 77992 mu s
nonecudaGKOCG:  Solving for p, Initial residual = 0.925757, Final residual = 5.24177e-07, No Iterations 2626
linear solve p 12926274
time step continuity errors : sum local = 2.55102e-10, global = -1.23806e-21, cumulative = -1.50836e-21
ExecutionTime = 268.16 s  ClockTime = 269 s

End

Finalising parallel run
================================================================================
hash: c6ca7fcc6e4dd440edd943dab8ab3921
/*---------------------------------------------------------------------------*\
| =========                 |                                                 |
| \\      /  F ield         | OpenFOAM: The Open Source CFD Toolbox           |
|  \\    /   O peration     | Version:  2112                                  |
|   \\  /    A nd           | Website:  www.openfoam.com                      |
|    \\/     M anipulation  |                                                 |
\*---------------------------------------------------------------------------*/
Build  : d44c8318f0-20220111 OPENFOAM=2112 version=v2112
Arch   : "LSB;label=32;scalar=64"
Exec   : icoFoam -parallel
Date   : Jan 29 2022
Time   : 14:24:47
Host   : hkn0434.localdomain
PID    : 3572675
I/O    : uncollated
Case   : /hkfs/home/project/hk-project-test-fine/eq4036/data/code/ogl_labbook/lidDrivenCavity/resolution/Variation_mesh/200/Variation_matrix_solver/BiCGStab_Multigrid_CUDA/Variation_mpiRank/38/base
nProcs : 38
Hosts  :
(
    (hkn0434.localdomain 38)
)
Pstream initialized with:
    floatTransfer      : 0
    nProcsSimpleSum    : 0
    commsType          : nonBlocking
    polling iterations : 0
trapFpe: Floating point exception trapping enabled (FOAM_SIGFPE).
fileModificationChecking : Monitoring run-time modified files using timeStampMaster (fileModificationSkew 5, maxFileModificationPolls 20)
allowSystemOperations : Allowing user-supplied system call operations

// * * * * * * * * * * * * * * * * * * * * * * * * * * * * * * * * * * * * * //
Create time

Create mesh for time = 0


PISO: Operating solver in PISO mode

Reading transportProperties

Reading field p

Reading field U

Reading/calculating face flux field phi


Starting time loop

Time = 0.0005

Courant Number mean: 0 max: 0
DILUPBiCGStab:  Solving for Ux, Initial residual = 1, Final residual = 0.0226536, No Iterations 5
DILUPBiCGStab:  Solving for Uy:  solution singularity
DILUPBiCGStab:  Solving for Uz:  solution singularity
linear solve U 205007
[OGL LOG][Proc: 0]global_index_init : 12818 mu s
[OGL LOG][Proc: 0]global_index_init : 28 mu s
[OGL LOG][Proc: 0]global_index_init : 12 mu s
[OGL LOG][Proc: 0]global_index_init : 11 mu s
[OGL LOG][Proc: 0]init_host_sparsity_pattern : 2097443 mu s
[OGL LOG][Proc: 0]update_host_matrix_data : 8642 mu s
[OGL LOG][Proc: 0]convert_coo_to_csr : 2597 mu s
[OGL LOG][Proc: 0]gather_initGuess : 32635 mu s
[OGL LOG][Proc: 0]gather_RHS : 25797 mu s
[OGL LOG][Proc: 0]gather_global_matrix : 4 mu s
[OGL LOG][Proc: 0]init_precond : 704260 mu s
[OGL LOG][Proc: 0]generate_solver : 3 mu s
[OGL LOG][Proc: 0]solve : 924405644 mu s
[OGL LOG][Proc: 0]retrieve_result_from_device : 24100 mu s
MultigridcudaGKOBiCGStab:  Solving for p, Initial residual = 1, Final residual = 1.79457e-05, No Iterations 10000
linear solve p 934888080
time step continuity errors : sum local = 6.45897e-09, global = 4.44341e-21, cumulative = 4.44341e-21
[OGL LOG][Proc: 0]global_index_init : 186 mu s
[OGL LOG][Proc: 0]global_index_init : 9 mu s
[OGL LOG][Proc: 0]global_index_init : 13 mu s
[OGL LOG][Proc: 0]global_index_init : 10 mu s
[OGL LOG][Proc: 0]update_host_matrix_data : 14210 mu s
[OGL LOG][Proc: 0]gather_initGuess : 9 mu s
[OGL LOG][Proc: 0]gather_RHS : 29076 mu s
[OGL LOG][Proc: 0]gather_global_matrix : 0 mu s
read from registry
[OGL LOG][Proc: 0]init_precond : 18 mu s
[OGL LOG][Proc: 0]generate_solver : 1 mu s
[OGL LOG][Proc: 0]solve : 925332423 mu s
[OGL LOG][Proc: 0]retrieve_result_from_device : 24516 mu s
MultigridcudaGKOBiCGStab:  Solving for p, Initial residual = 0.821129, Final residual = 2.3115e-06, No Iterations 10000
linear solve p 925406848
time step continuity errors : sum local = 1.03546e-09, global = 2.71031e-21, cumulative = 7.15372e-21
ExecutionTime = 1848.37 s  ClockTime = 1862 s

Time = 0.001

Courant Number mean: 0.0390096 max: 0.865218
DILUPBiCGStab:  Solving for Ux, Initial residual = 0.117657, Final residual = 0.0140565, No Iterations 5
DILUPBiCGStab:  Solving for Uy, Initial residual = 0.506347, Final residual = 0.0544942, No Iterations 5
DILUPBiCGStab:  Solving for Uz, Initial residual = 0.939827, Final residual = 0.108127, No Iterations 5
linear solve U 418817
[OGL LOG][Proc: 0]global_index_init : 76 mu s
[OGL LOG][Proc: 0]global_index_init : 7 mu s
[OGL LOG][Proc: 0]global_index_init : 16 mu s
[OGL LOG][Proc: 0]global_index_init : 10 mu s
[OGL LOG][Proc: 0]update_host_matrix_data : 13705 mu s
[OGL LOG][Proc: 0]gather_initGuess : 2 mu s
[OGL LOG][Proc: 0]gather_RHS : 29033 mu s
[OGL LOG][Proc: 0]gather_global_matrix : 0 mu s
read from registry
[OGL LOG][Proc: 0]init_precond : 8 mu s
[OGL LOG][Proc: 0]generate_solver : 1 mu s
[OGL LOG][Proc: 0]solve : 924588899 mu s
[OGL LOG][Proc: 0]retrieve_result_from_device : 24744 mu s
MultigridcudaGKOBiCGStab:  Solving for p, Initial residual = 0.90574, Final residual = 2.15622e-05, No Iterations 10000
linear solve p 924662455
time step continuity errors : sum local = 2.34962e-08, global = -3.66358e-21, cumulative = 3.49013e-21
[OGL LOG][Proc: 0]global_index_init : 38 mu s
[OGL LOG][Proc: 0]global_index_init : 8 mu s
[OGL LOG][Proc: 0]global_index_init : 12 mu s
[OGL LOG][Proc: 0]global_index_init : 13 mu s
[OGL LOG][Proc: 0]update_host_matrix_data : 13863 mu s
[OGL LOG][Proc: 0]gather_initGuess : 3 mu s
[OGL LOG][Proc: 0]gather_RHS : 29324 mu s
[OGL LOG][Proc: 0]gather_global_matrix : 0 mu s
read from registry
[OGL LOG][Proc: 0]init_precond : 8 mu s
[OGL LOG][Proc: 0]generate_solver : 1 mu s
[OGL LOG][Proc: 0]solve : 925446684 mu s
[OGL LOG][Proc: 0]retrieve_result_from_device : 24876 mu s
MultigridcudaGKOBiCGStab:  Solving for p, Initial residual = 0.853855, Final residual = 1.38394e-05, No Iterations 10000
linear solve p 925520667
time step continuity errors : sum local = 1.2711e-08, global = 1.31522e-21, cumulative = 4.80535e-21
ExecutionTime = 3689.07 s  ClockTime = 3712 s

Time = 0.0015

Courant Number mean: 0.0611862 max: 1.02198
DILUPBiCGStab:  Solving for Ux, Initial residual = 0.0683472, Final residual = 0.00608417, No Iterations 5
DILUPBiCGStab:  Solving for Uy, Initial residual = 0.35798, Final residual = 0.0232791, No Iterations 5
DILUPBiCGStab:  Solving for Uz, Initial residual = 0.792827, Final residual = 0.0767055, No Iterations 5
linear solve U 421152
[OGL LOG][Proc: 0]global_index_init : 132 mu s
[OGL LOG][Proc: 0]global_index_init : 6 mu s
[OGL LOG][Proc: 0]global_index_init : 13 mu s
[OGL LOG][Proc: 0]global_index_init : 5 mu s
[OGL LOG][Proc: 0]update_host_matrix_data : 13966 mu s
[OGL LOG][Proc: 0]gather_initGuess : 2 mu s
[OGL LOG][Proc: 0]gather_RHS : 29275 mu s
[OGL LOG][Proc: 0]gather_global_matrix : 0 mu s
read from registry
[OGL LOG][Proc: 0]init_precond : 8 mu s
[OGL LOG][Proc: 0]generate_solver : 1 mu s
[OGL LOG][Proc: 0]solve : 925318053 mu s
[OGL LOG][Proc: 0]retrieve_result_from_device : 25146 mu s
MultigridcudaGKOBiCGStab:  Solving for p, Initial residual = 0.939926, Final residual = 0.00478072, No Iterations 10000
linear solve p 925392311
time step continuity errors : sum local = 3.5064e-06, global = -2.38228e-21, cumulative = 2.42307e-21
[OGL LOG][Proc: 0]global_index_init : 115 mu s
[OGL LOG][Proc: 0]global_index_init : 8 mu s
[OGL LOG][Proc: 0]global_index_init : 8 mu s
[OGL LOG][Proc: 0]global_index_init : 12 mu s
[OGL LOG][Proc: 0]update_host_matrix_data : 13558 mu s
[OGL LOG][Proc: 0]gather_initGuess : 2 mu s
[OGL LOG][Proc: 0]gather_RHS : 29099 mu s
[OGL LOG][Proc: 0]gather_global_matrix : 0 mu s
read from registry
[OGL LOG][Proc: 0]init_precond : 8 mu s
[OGL LOG][Proc: 0]generate_solver : 1 mu s
[OGL LOG][Proc: 0]solve : 925599877 mu s
[OGL LOG][Proc: 0]retrieve_result_from_device : 24849 mu s
MultigridcudaGKOBiCGStab:  Solving for p, Initial residual = 0.902721, Final residual = 0.000376458, No Iterations 10000
linear solve p 925673550
time step continuity errors : sum local = 5.21528e-07, global = 1.51539e-20, cumulative = 1.7577e-20
ExecutionTime = 5530.44 s  ClockTime = 5564 s

End

Finalising parallel run
================================================================================
