hash: 861c8e9209c57784838772dbf1704bb3
/*---------------------------------------------------------------------------*\
| =========                 |                                                 |
| \\      /  F ield         | OpenFOAM: The Open Source CFD Toolbox           |
|  \\    /   O peration     | Version:  v2106                                 |
|   \\  /    A nd           | Website:  www.openfoam.com                      |
|    \\/     M anipulation  |                                                 |
\*---------------------------------------------------------------------------*/
Build  : f815a12bba-20210902 OPENFOAM=2106
Arch   : "LSB;label=32;scalar=64"
Exec   : icoFoam -parallel
Date   : Jan 27 2022
Time   : 21:47:18
Host   : nla-gpu2.ianm.kit.edu
PID    : 3614144
I/O    : uncollated
Case   : /home/greole/data/code/ogl_labbook/lidDrivenCavity3D/resolution/Variation_mesh/300/Variation_matrix_solver/BiCGStab_ISAI_HIP/Variation_mpiRank/8/base
nProcs : 8
Hosts  :
(
    (nla-gpu2.ianm.kit.edu 8)
)
Pstream initialized with:
    floatTransfer      : 0
    nProcsSimpleSum    : 0
    commsType          : nonBlocking
    polling iterations : 0
trapFpe: Floating point exception trapping enabled (FOAM_SIGFPE).
fileModificationChecking : Monitoring run-time modified files using timeStampMaster (fileModificationSkew 5, maxFileModificationPolls 20)
allowSystemOperations : Allowing user-supplied system call operations

// * * * * * * * * * * * * * * * * * * * * * * * * * * * * * * * * * * * * * //
Create time

Create mesh for time = 0


PISO: Operating solver in PISO mode

Reading transportProperties

Reading field p

Reading field U

Reading/calculating face flux field phi


Starting time loop

Time = 0.000333333

Courant Number mean: 0 max: 0
DILUPBiCGStab:  Solving for Ux, Initial residual = 1, Final residual = 0.0285744, No Iterations 5
DILUPBiCGStab:  Solving for Uy:  solution singularity
DILUPBiCGStab:  Solving for Uz:  solution singularity
linear solve U 1521875
[OGL LOG][Proc: 0]global_index_init : 42444 mu s
[OGL LOG][Proc: 0]global_index_init : 4 mu s
[OGL LOG][Proc: 0]global_index_init : 4 mu s
[OGL LOG][Proc: 0]global_index_init : 4 mu s
[OGL LOG][Proc: 0]init_host_sparsity_pattern : 115952602 mu s
[OGL LOG][Proc: 0]update_host_matrix_data : 82578 mu s
[OGL LOG][Proc: 0]convert_coo_to_csr : 10617 mu s
[OGL LOG][Proc: 0]gather_initGuess : 65852 mu s
[OGL LOG][Proc: 0]gather_RHS : 58063 mu s
[OGL LOG][Proc: 0]gather_global_matrix : 0 mu s
[OGL LOG][Proc: 0]init_precond : 4511983 mu s
[OGL LOG][Proc: 0]generate_solver : 8 mu s
[OGL LOG][Proc: 0]solve : 216599604 mu s
[OGL LOG][Proc: 0]retrieve_result_from_device : 57861 mu s
ISAIhipGKOBiCGStab:  Solving for p, Initial residual = 1, Final residual = 84.0187, No Iterations 10000
linear solve p 369744177
time step continuity errors : sum local = 0.00793456, global = 1.83524e-20, cumulative = 1.83524e-20
[OGL LOG][Proc: 0]global_index_init : 153 mu s
[OGL LOG][Proc: 0]global_index_init : 3 mu s
[OGL LOG][Proc: 0]global_index_init : 5 mu s
[OGL LOG][Proc: 0]global_index_init : 4 mu s
[OGL LOG][Proc: 0]update_host_matrix_data : 66072 mu s
[OGL LOG][Proc: 0]gather_initGuess : 16 mu s
[OGL LOG][Proc: 0]gather_RHS : 58561 mu s
[OGL LOG][Proc: 0]gather_global_matrix : 1 mu s
read from registry
[OGL LOG][Proc: 0]init_precond : 27 mu s
[OGL LOG][Proc: 0]generate_solver : 1 mu s
[OGL LOG][Proc: 0]solve : 90500981 mu s
[OGL LOG][Proc: 0]retrieve_result_from_device : 61939 mu s
ISAIhipGKOBiCGStab:  Solving for p, Initial residual = 0.995587, Final residual = 2.88789e-24, No Iterations 4000
linear solve p 90721560
time step continuity errors : sum local = 2.04975e-12, global = -3.63656e-22, cumulative = 1.79887e-20
ExecutionTime = 499.94 s  ClockTime = 480 s

Time = 0.000666667

Courant Number mean: 0.0305482 max: 0.890906
DILUPBiCGStab:  Solving for Ux, Initial residual = 0.104127, Final residual = 0.0184704, No Iterations 5
DILUPBiCGStab:  Solving for Uy, Initial residual = 0.567197, Final residual = 0.10249, No Iterations 5
DILUPBiCGStab:  Solving for Uz, Initial residual = 0.977657, Final residual = 0.221168, No Iterations 5
linear solve U 2917753
[OGL LOG][Proc: 0]global_index_init : 537 mu s
[OGL LOG][Proc: 0]global_index_init : 3 mu s
[OGL LOG][Proc: 0]global_index_init : 5 mu s
[OGL LOG][Proc: 0]global_index_init : 3 mu s
[OGL LOG][Proc: 0]update_host_matrix_data : 68722 mu s
[OGL LOG][Proc: 0]gather_initGuess : 4 mu s
[OGL LOG][Proc: 0]gather_RHS : 58357 mu s
[OGL LOG][Proc: 0]gather_global_matrix : 0 mu s
read from registry
[OGL LOG][Proc: 0]init_precond : 13 mu s
[OGL LOG][Proc: 0]generate_solver : 1 mu s
[OGL LOG][Proc: 0]solve : 46027756 mu s
[OGL LOG][Proc: 0]retrieve_result_from_device : 60128 mu s
ISAIhipGKOBiCGStab:  Solving for p, Initial residual = 0.922623, Final residual = 9.85312e-07, No Iterations 2080
linear solve p 46247886
time step continuity errors : sum local = 3.48409e-10, global = -5.22352e-21, cumulative = 1.27652e-20
[OGL LOG][Proc: 0]global_index_init : 448 mu s
[OGL LOG][Proc: 0]global_index_init : 3 mu s
[OGL LOG][Proc: 0]global_index_init : 5 mu s
[OGL LOG][Proc: 0]global_index_init : 4 mu s
[OGL LOG][Proc: 0]update_host_matrix_data : 66888 mu s
[OGL LOG][Proc: 0]gather_initGuess : 4 mu s
[OGL LOG][Proc: 0]gather_RHS : 57876 mu s
[OGL LOG][Proc: 0]gather_global_matrix : 0 mu s
read from registry
[OGL LOG][Proc: 0]init_precond : 9 mu s
[OGL LOG][Proc: 0]generate_solver : 1 mu s
[OGL LOG][Proc: 0]solve : 63098860 mu s
[OGL LOG][Proc: 0]retrieve_result_from_device : 57746 mu s
ISAIhipGKOBiCGStab:  Solving for p, Initial residual = 0.880775, Final residual = 8.15166e-07, No Iterations 2988
linear solve p 63311510
time step continuity errors : sum local = 3.12931e-10, global = -2.72906e-21, cumulative = 1.00361e-20
ExecutionTime = 619.58 s  ClockTime = 595 s

Time = 0.001

Courant Number mean: 0.0485775 max: 1.07168
DILUPBiCGStab:  Solving for Ux, Initial residual = 0.0676801, Final residual = 0.00984439, No Iterations 5
DILUPBiCGStab:  Solving for Uy, Initial residual = 0.438356, Final residual = 0.0449178, No Iterations 5
DILUPBiCGStab:  Solving for Uz, Initial residual = 0.87143, Final residual = 0.15041, No Iterations 5
linear solve U 2909236
[OGL LOG][Proc: 0]global_index_init : 230 mu s
[OGL LOG][Proc: 0]global_index_init : 3 mu s
[OGL LOG][Proc: 0]global_index_init : 5 mu s
[OGL LOG][Proc: 0]global_index_init : 3 mu s
[OGL LOG][Proc: 0]update_host_matrix_data : 68652 mu s
[OGL LOG][Proc: 0]gather_initGuess : 3 mu s
[OGL LOG][Proc: 0]gather_RHS : 57899 mu s
[OGL LOG][Proc: 0]gather_global_matrix : 0 mu s
read from registry
[OGL LOG][Proc: 0]init_precond : 11 mu s
[OGL LOG][Proc: 0]generate_solver : 1 mu s
[OGL LOG][Proc: 0]solve : 40798465 mu s
[OGL LOG][Proc: 0]retrieve_result_from_device : 61570 mu s
ISAIhipGKOBiCGStab:  Solving for p, Initial residual = 0.962166, Final residual = 7.4192e-07, No Iterations 1964
linear solve p 41017068
time step continuity errors : sum local = 5.05591e-09, global = -1.05809e-20, cumulative = -5.44768e-22
[OGL LOG][Proc: 0]global_index_init : 241 mu s
[OGL LOG][Proc: 0]global_index_init : 2 mu s
[OGL LOG][Proc: 0]global_index_init : 5 mu s
[OGL LOG][Proc: 0]global_index_init : 3 mu s
[OGL LOG][Proc: 0]update_host_matrix_data : 68083 mu s
[OGL LOG][Proc: 0]gather_initGuess : 4 mu s
[OGL LOG][Proc: 0]gather_RHS : 57871 mu s
[OGL LOG][Proc: 0]gather_global_matrix : 0 mu s
read from registry
[OGL LOG][Proc: 0]init_precond : 11 mu s
[OGL LOG][Proc: 0]generate_solver : 1 mu s
[OGL LOG][Proc: 0]solve : 51217682 mu s
[OGL LOG][Proc: 0]retrieve_result_from_device : 60186 mu s
ISAIhipGKOBiCGStab:  Solving for p, Initial residual = 0.922686, Final residual = 9.75328e-07, No Iterations 2379
linear solve p 51434801
time step continuity errors : sum local = 5.07188e-10, global = -1.60559e-21, cumulative = -2.15036e-21
ExecutionTime = 721.41 s  ClockTime = 692 s

End

Finalising parallel run
================================================================================
hash: db920154f2de29ff14b31893710902a0
/*---------------------------------------------------------------------------*\
| =========                 |                                                 |
| \\      /  F ield         | OpenFOAM: The Open Source CFD Toolbox           |
|  \\    /   O peration     | Version:  v2106                                 |
|   \\  /    A nd           | Website:  www.openfoam.com                      |
|    \\/     M anipulation  |                                                 |
\*---------------------------------------------------------------------------*/
Build  : f815a12bba-20210902 OPENFOAM=2106
Arch   : "LSB;label=32;scalar=64"
Exec   : icoFoam -parallel
Date   : Jan 27 2022
Time   : 21:58:51
Host   : nla-gpu2.ianm.kit.edu
PID    : 3620696
I/O    : uncollated
Case   : /home/greole/data/code/ogl_labbook/lidDrivenCavity3D/resolution/Variation_mesh/300/Variation_matrix_solver/BiCGStab_NoPrecond_HIP/Variation_mpiRank/8/base
nProcs : 8
Hosts  :
(
    (nla-gpu2.ianm.kit.edu 8)
)
Pstream initialized with:
    floatTransfer      : 0
    nProcsSimpleSum    : 0
    commsType          : nonBlocking
    polling iterations : 0
trapFpe: Floating point exception trapping enabled (FOAM_SIGFPE).
fileModificationChecking : Monitoring run-time modified files using timeStampMaster (fileModificationSkew 5, maxFileModificationPolls 20)
allowSystemOperations : Allowing user-supplied system call operations

// * * * * * * * * * * * * * * * * * * * * * * * * * * * * * * * * * * * * * //
Create time

Create mesh for time = 0


PISO: Operating solver in PISO mode

Reading transportProperties

Reading field p

Reading field U

Reading/calculating face flux field phi


Starting time loop

Time = 0.000333333

Courant Number mean: 0 max: 0
DILUPBiCGStab:  Solving for Ux, Initial residual = 1, Final residual = 0.0285744, No Iterations 5
DILUPBiCGStab:  Solving for Uy:  solution singularity
DILUPBiCGStab:  Solving for Uz:  solution singularity
linear solve U 1517205
[OGL LOG][Proc: 0]global_index_init : 29487 mu s
[OGL LOG][Proc: 0]global_index_init : 4 mu s
[OGL LOG][Proc: 0]global_index_init : 5 mu s
[OGL LOG][Proc: 0]global_index_init : 4 mu s
[OGL LOG][Proc: 0]init_host_sparsity_pattern : 114418239 mu s
[OGL LOG][Proc: 0]update_host_matrix_data : 83587 mu s
[OGL LOG][Proc: 0]convert_coo_to_csr : 11153 mu s
[OGL LOG][Proc: 0]gather_initGuess : 65983 mu s
[OGL LOG][Proc: 0]gather_RHS : 58865 mu s
[OGL LOG][Proc: 0]gather_global_matrix : 0 mu s
[OGL LOG][Proc: 0]init_precond : 69 mu s
[OGL LOG][Proc: 0]generate_solver : 19 mu s
[OGL LOG][Proc: 0]solve : 37140308 mu s
[OGL LOG][Proc: 0]retrieve_result_from_device : 53494 mu s
nonehipGKOBiCGStab:  Solving for p, Initial residual = 1, Final residual = 7.14638e-07, No Iterations 2516
linear solve p 186561826
time step continuity errors : sum local = 7.89395e-11, global = 5.74462e-21, cumulative = 5.74462e-21
[OGL LOG][Proc: 0]global_index_init : 352 mu s
[OGL LOG][Proc: 0]global_index_init : 3 mu s
[OGL LOG][Proc: 0]global_index_init : 6 mu s
[OGL LOG][Proc: 0]global_index_init : 3 mu s
[OGL LOG][Proc: 0]update_host_matrix_data : 66156 mu s
[OGL LOG][Proc: 0]gather_initGuess : 17 mu s
[OGL LOG][Proc: 0]gather_RHS : 59471 mu s
[OGL LOG][Proc: 0]gather_global_matrix : 0 mu s
read from registry
[OGL LOG][Proc: 0]init_precond : 27 mu s
[OGL LOG][Proc: 0]generate_solver : 2 mu s
[OGL LOG][Proc: 0]solve : 35607254 mu s
[OGL LOG][Proc: 0]retrieve_result_from_device : 58114 mu s
nonehipGKOBiCGStab:  Solving for p, Initial residual = 0.827887, Final residual = 7.6222e-07, No Iterations 2550
linear solve p 35824906
time step continuity errors : sum local = 1.7273e-10, global = 1.20099e-21, cumulative = 6.94561e-21
ExecutionTime = 248.14 s  ClockTime = 242 s

Time = 0.000666667

Courant Number mean: 0.0305465 max: 0.890858
DILUPBiCGStab:  Solving for Ux, Initial residual = 0.106033, Final residual = 0.0187016, No Iterations 5
DILUPBiCGStab:  Solving for Uy, Initial residual = 0.546322, Final residual = 0.0883787, No Iterations 5
DILUPBiCGStab:  Solving for Uz, Initial residual = 0.963957, Final residual = 0.177006, No Iterations 5
linear solve U 2910413
[OGL LOG][Proc: 0]global_index_init : 246 mu s
[OGL LOG][Proc: 0]global_index_init : 3 mu s
[OGL LOG][Proc: 0]global_index_init : 5 mu s
[OGL LOG][Proc: 0]global_index_init : 3 mu s
[OGL LOG][Proc: 0]update_host_matrix_data : 69019 mu s
[OGL LOG][Proc: 0]gather_initGuess : 2 mu s
[OGL LOG][Proc: 0]gather_RHS : 58484 mu s
[OGL LOG][Proc: 0]gather_global_matrix : 0 mu s
read from registry
[OGL LOG][Proc: 0]init_precond : 10 mu s
[OGL LOG][Proc: 0]generate_solver : 2 mu s
[OGL LOG][Proc: 0]solve : 41290686 mu s
[OGL LOG][Proc: 0]retrieve_result_from_device : 62752 mu s
nonehipGKOBiCGStab:  Solving for p, Initial residual = 0.926022, Final residual = 4.74417e-07, No Iterations 2907
linear solve p 41511554
time step continuity errors : sum local = 3.00143e-10, global = -3.80848e-23, cumulative = 6.90753e-21
[OGL LOG][Proc: 0]global_index_init : 415 mu s
[OGL LOG][Proc: 0]global_index_init : 3 mu s
[OGL LOG][Proc: 0]global_index_init : 5 mu s
[OGL LOG][Proc: 0]global_index_init : 3 mu s
[OGL LOG][Proc: 0]update_host_matrix_data : 67362 mu s
[OGL LOG][Proc: 0]gather_initGuess : 4 mu s
[OGL LOG][Proc: 0]gather_RHS : 58580 mu s
[OGL LOG][Proc: 0]gather_global_matrix : 0 mu s
read from registry
[OGL LOG][Proc: 0]init_precond : 10 mu s
[OGL LOG][Proc: 0]generate_solver : 2 mu s
[OGL LOG][Proc: 0]solve : 49781846 mu s
[OGL LOG][Proc: 0]retrieve_result_from_device : 58677 mu s
nonehipGKOBiCGStab:  Solving for p, Initial residual = 0.879198, Final residual = 9.76061e-07, No Iterations 3364
linear solve p 49997240
time step continuity errors : sum local = 5.39403e-10, global = -1.4983e-21, cumulative = 5.40923e-21
ExecutionTime = 351.12 s  ClockTime = 338 s

Time = 0.001

Courant Number mean: 0.0488089 max: 1.07263
DILUPBiCGStab:  Solving for Ux, Initial residual = 0.0665513, Final residual = 0.00905526, No Iterations 5
DILUPBiCGStab:  Solving for Uy, Initial residual = 0.417098, Final residual = 0.0410167, No Iterations 5
DILUPBiCGStab:  Solving for Uz, Initial residual = 0.846654, Final residual = 0.121427, No Iterations 5
linear solve U 2915163
[OGL LOG][Proc: 0]global_index_init : 196 mu s
[OGL LOG][Proc: 0]global_index_init : 2 mu s
[OGL LOG][Proc: 0]global_index_init : 6 mu s
[OGL LOG][Proc: 0]global_index_init : 3 mu s
[OGL LOG][Proc: 0]update_host_matrix_data : 68731 mu s
[OGL LOG][Proc: 0]gather_initGuess : 2 mu s
[OGL LOG][Proc: 0]gather_RHS : 59199 mu s
[OGL LOG][Proc: 0]gather_global_matrix : 1 mu s
read from registry
[OGL LOG][Proc: 0]init_precond : 10 mu s
[OGL LOG][Proc: 0]generate_solver : 2 mu s
[OGL LOG][Proc: 0]solve : 42471276 mu s
[OGL LOG][Proc: 0]retrieve_result_from_device : 65327 mu s
nonehipGKOBiCGStab:  Solving for p, Initial residual = 0.960857, Final residual = 1.93614e-07, No Iterations 3015
linear solve p 42692487
time step continuity errors : sum local = 1.88507e-10, global = -1.85448e-21, cumulative = 3.55475e-21
[OGL LOG][Proc: 0]global_index_init : 131 mu s
[OGL LOG][Proc: 0]global_index_init : 3 mu s
[OGL LOG][Proc: 0]global_index_init : 5 mu s
[OGL LOG][Proc: 0]global_index_init : 4 mu s
[OGL LOG][Proc: 0]update_host_matrix_data : 67358 mu s
[OGL LOG][Proc: 0]gather_initGuess : 2 mu s
[OGL LOG][Proc: 0]gather_RHS : 60553 mu s
[OGL LOG][Proc: 0]gather_global_matrix : 1 mu s
read from registry
[OGL LOG][Proc: 0]init_precond : 10 mu s
[OGL LOG][Proc: 0]generate_solver : 4 mu s
[OGL LOG][Proc: 0]solve : 36269018 mu s
[OGL LOG][Proc: 0]retrieve_result_from_device : 57660 mu s
nonehipGKOBiCGStab:  Solving for p, Initial residual = 0.92576, Final residual = 7.70244e-07, No Iterations 2580
linear solve p 36484799
time step continuity errors : sum local = 7.49716e-10, global = -5.47662e-22, cumulative = 3.00708e-21
ExecutionTime = 441.09 s  ClockTime = 422 s

End

Finalising parallel run
================================================================================
hash: af5905f0f0bd68efe9682820ae5292c0
/*---------------------------------------------------------------------------*\
| =========                 |                                                 |
| \\      /  F ield         | OpenFOAM: The Open Source CFD Toolbox           |
|  \\    /   O peration     | Version:  v2106                                 |
|   \\  /    A nd           | Website:  www.openfoam.com                      |
|    \\/     M anipulation  |                                                 |
\*---------------------------------------------------------------------------*/
Build  : f815a12bba-20210902 OPENFOAM=2106
Arch   : "LSB;label=32;scalar=64"
Exec   : icoFoam -parallel
Date   : Jan 27 2022
Time   : 22:05:54
Host   : nla-gpu2.ianm.kit.edu
PID    : 3624716
I/O    : uncollated
Case   : /home/greole/data/code/ogl_labbook/lidDrivenCavity3D/resolution/Variation_mesh/300/Variation_matrix_solver/CG_NoPrecond_HIP/Variation_mpiRank/8/base
nProcs : 8
Hosts  :
(
    (nla-gpu2.ianm.kit.edu 8)
)
Pstream initialized with:
    floatTransfer      : 0
    nProcsSimpleSum    : 0
    commsType          : nonBlocking
    polling iterations : 0
trapFpe: Floating point exception trapping enabled (FOAM_SIGFPE).
fileModificationChecking : Monitoring run-time modified files using timeStampMaster (fileModificationSkew 5, maxFileModificationPolls 20)
allowSystemOperations : Allowing user-supplied system call operations

// * * * * * * * * * * * * * * * * * * * * * * * * * * * * * * * * * * * * * //
Create time

Create mesh for time = 0


PISO: Operating solver in PISO mode

Reading transportProperties

Reading field p

Reading field U

Reading/calculating face flux field phi


Starting time loop

Time = 0.000333333

Courant Number mean: 0 max: 0
DILUPBiCGStab:  Solving for Ux, Initial residual = 1, Final residual = 0.0285744, No Iterations 5
DILUPBiCGStab:  Solving for Uy:  solution singularity
DILUPBiCGStab:  Solving for Uz:  solution singularity
linear solve U 1513859
[OGL LOG][Proc: 0]global_index_init : 35448 mu s
[OGL LOG][Proc: 0]global_index_init : 4 mu s
[OGL LOG][Proc: 0]global_index_init : 4 mu s
[OGL LOG][Proc: 0]global_index_init : 4 mu s
[OGL LOG][Proc: 0]init_host_sparsity_pattern : 115452684 mu s
[OGL LOG][Proc: 0]update_host_matrix_data : 83158 mu s
[OGL LOG][Proc: 0]convert_coo_to_csr : 10344 mu s
[OGL LOG][Proc: 0]gather_initGuess : 64754 mu s
[OGL LOG][Proc: 0]gather_RHS : 59308 mu s
[OGL LOG][Proc: 0]gather_global_matrix : 1 mu s
[OGL LOG][Proc: 0]init_precond : 75 mu s
[OGL LOG][Proc: 0]generate_solver : 19 mu s
[OGL LOG][Proc: 0]solve : 20968304 mu s
[OGL LOG][Proc: 0]retrieve_result_from_device : 60036 mu s
nonehipGKOCG:  Solving for p, Initial residual = 1, Final residual = 9.82417e-07, No Iterations 2637
linear solve p 170268622
time step continuity errors : sum local = 9.27755e-11, global = 7.01296e-21, cumulative = 7.01296e-21
[OGL LOG][Proc: 0]global_index_init : 429 mu s
[OGL LOG][Proc: 0]global_index_init : 3 mu s
[OGL LOG][Proc: 0]global_index_init : 5 mu s
[OGL LOG][Proc: 0]global_index_init : 3 mu s
[OGL LOG][Proc: 0]update_host_matrix_data : 65864 mu s
[OGL LOG][Proc: 0]gather_initGuess : 24 mu s
[OGL LOG][Proc: 0]gather_RHS : 60023 mu s
[OGL LOG][Proc: 0]gather_global_matrix : 1 mu s
read from registry
[OGL LOG][Proc: 0]init_precond : 28 mu s
[OGL LOG][Proc: 0]generate_solver : 2 mu s
[OGL LOG][Proc: 0]solve : 19792754 mu s
[OGL LOG][Proc: 0]retrieve_result_from_device : 58110 mu s
nonehipGKOCG:  Solving for p, Initial residual = 0.827887, Final residual = 9.70033e-07, No Iterations 2626
linear solve p 20010515
time step continuity errors : sum local = 1.09913e-10, global = 1.69126e-22, cumulative = 7.18209e-21
ExecutionTime = 213.26 s  ClockTime = 210 s

Time = 0.000666667

Courant Number mean: 0.0305465 max: 0.890858
DILUPBiCGStab:  Solving for Ux, Initial residual = 0.106029, Final residual = 0.0187003, No Iterations 5
DILUPBiCGStab:  Solving for Uy, Initial residual = 0.546324, Final residual = 0.0883789, No Iterations 5
DILUPBiCGStab:  Solving for Uz, Initial residual = 0.963977, Final residual = 0.176992, No Iterations 5
linear solve U 2936749
[OGL LOG][Proc: 0]global_index_init : 468 mu s
[OGL LOG][Proc: 0]global_index_init : 3 mu s
[OGL LOG][Proc: 0]global_index_init : 5 mu s
[OGL LOG][Proc: 0]global_index_init : 2 mu s
[OGL LOG][Proc: 0]update_host_matrix_data : 69074 mu s
[OGL LOG][Proc: 0]gather_initGuess : 2 mu s
[OGL LOG][Proc: 0]gather_RHS : 59520 mu s
[OGL LOG][Proc: 0]gather_global_matrix : 1 mu s
read from registry
[OGL LOG][Proc: 0]init_precond : 10 mu s
[OGL LOG][Proc: 0]generate_solver : 2 mu s
[OGL LOG][Proc: 0]solve : 19797706 mu s
[OGL LOG][Proc: 0]retrieve_result_from_device : 56964 mu s
nonehipGKOCG:  Solving for p, Initial residual = 0.926023, Final residual = 4.85053e-07, No Iterations 2626
linear solve p 20013304
time step continuity errors : sum local = 1.5363e-10, global = -1.07891e-21, cumulative = 6.10317e-21
[OGL LOG][Proc: 0]global_index_init : 615 mu s
[OGL LOG][Proc: 0]global_index_init : 4 mu s
[OGL LOG][Proc: 0]global_index_init : 5 mu s
[OGL LOG][Proc: 0]global_index_init : 3 mu s
[OGL LOG][Proc: 0]update_host_matrix_data : 66779 mu s
[OGL LOG][Proc: 0]gather_initGuess : 2 mu s
[OGL LOG][Proc: 0]gather_RHS : 59487 mu s
[OGL LOG][Proc: 0]gather_global_matrix : 0 mu s
read from registry
[OGL LOG][Proc: 0]init_precond : 9 mu s
[OGL LOG][Proc: 0]generate_solver : 2 mu s
[OGL LOG][Proc: 0]solve : 19794786 mu s
[OGL LOG][Proc: 0]retrieve_result_from_device : 63615 mu s
nonehipGKOCG:  Solving for p, Initial residual = 0.879205, Final residual = 4.43186e-07, No Iterations 2626
linear solve p 20012760
time step continuity errors : sum local = 1.43158e-10, global = -1.60508e-21, cumulative = 4.49809e-21
ExecutionTime = 260.94 s  ClockTime = 255 s

Time = 0.001

Courant Number mean: 0.0488089 max: 1.07263
DILUPBiCGStab:  Solving for Ux, Initial residual = 0.0665545, Final residual = 0.00905679, No Iterations 5
DILUPBiCGStab:  Solving for Uy, Initial residual = 0.417099, Final residual = 0.0410158, No Iterations 5
DILUPBiCGStab:  Solving for Uz, Initial residual = 0.846608, Final residual = 0.12139, No Iterations 5
linear solve U 2954808
[OGL LOG][Proc: 0]global_index_init : 291 mu s
[OGL LOG][Proc: 0]global_index_init : 3 mu s
[OGL LOG][Proc: 0]global_index_init : 5 mu s
[OGL LOG][Proc: 0]global_index_init : 4 mu s
[OGL LOG][Proc: 0]update_host_matrix_data : 69017 mu s
[OGL LOG][Proc: 0]gather_initGuess : 4 mu s
[OGL LOG][Proc: 0]gather_RHS : 59191 mu s
[OGL LOG][Proc: 0]gather_global_matrix : 0 mu s
read from registry
[OGL LOG][Proc: 0]init_precond : 9 mu s
[OGL LOG][Proc: 0]generate_solver : 2 mu s
[OGL LOG][Proc: 0]solve : 19800407 mu s
[OGL LOG][Proc: 0]retrieve_result_from_device : 61063 mu s
nonehipGKOCG:  Solving for p, Initial residual = 0.960855, Final residual = 5.50002e-07, No Iterations 2626
linear solve p 20016955
time step continuity errors : sum local = 2.67744e-10, global = -1.59838e-21, cumulative = 2.89971e-21
[OGL LOG][Proc: 0]global_index_init : 280 mu s
[OGL LOG][Proc: 0]global_index_init : 3 mu s
[OGL LOG][Proc: 0]global_index_init : 5 mu s
[OGL LOG][Proc: 0]global_index_init : 3 mu s
[OGL LOG][Proc: 0]update_host_matrix_data : 67625 mu s
[OGL LOG][Proc: 0]gather_initGuess : 2 mu s
[OGL LOG][Proc: 0]gather_RHS : 59293 mu s
[OGL LOG][Proc: 0]gather_global_matrix : 1 mu s
read from registry
[OGL LOG][Proc: 0]init_precond : 10 mu s
[OGL LOG][Proc: 0]generate_solver : 2 mu s
[OGL LOG][Proc: 0]solve : 19874926 mu s
[OGL LOG][Proc: 0]retrieve_result_from_device : 62366 mu s
nonehipGKOCG:  Solving for p, Initial residual = 0.925757, Final residual = 5.24177e-07, No Iterations 2626
linear solve p 20090727
time step continuity errors : sum local = 2.55102e-10, global = -1.86773e-21, cumulative = 1.03198e-21
ExecutionTime = 308.77 s  ClockTime = 300 s

End

Finalising parallel run
================================================================================
hash: 576a60b7e24c2ed6d0428382a0f2c3d7
/*---------------------------------------------------------------------------*\
| =========                 |                                                 |
| \\      /  F ield         | OpenFOAM: The Open Source CFD Toolbox           |
|  \\    /   O peration     | Version:  v2106                                 |
|   \\  /    A nd           | Website:  www.openfoam.com                      |
|    \\/     M anipulation  |                                                 |
\*---------------------------------------------------------------------------*/
Build  : f815a12bba-20210902 OPENFOAM=2106
Arch   : "LSB;label=32;scalar=64"
Exec   : icoFoam -parallel
Date   : Jan 27 2022
Time   : 22:10:55
Host   : nla-gpu2.ianm.kit.edu
PID    : 3627520
I/O    : uncollated
Case   : /home/greole/data/code/ogl_labbook/lidDrivenCavity3D/resolution/Variation_mesh/300/Variation_matrix_solver/GMRES_ISAI_HIP/Variation_mpiRank/8/base
nProcs : 8
Hosts  :
(
    (nla-gpu2.ianm.kit.edu 8)
)
Pstream initialized with:
    floatTransfer      : 0
    nProcsSimpleSum    : 0
    commsType          : nonBlocking
    polling iterations : 0
trapFpe: Floating point exception trapping enabled (FOAM_SIGFPE).
fileModificationChecking : Monitoring run-time modified files using timeStampMaster (fileModificationSkew 5, maxFileModificationPolls 20)
allowSystemOperations : Allowing user-supplied system call operations

// * * * * * * * * * * * * * * * * * * * * * * * * * * * * * * * * * * * * * //
Create time

Create mesh for time = 0


PISO: Operating solver in PISO mode

Reading transportProperties

Reading field p

Reading field U

Reading/calculating face flux field phi


Starting time loop

Time = 0.000333333

Courant Number mean: 0 max: 0
DILUPBiCGStab:  Solving for Ux, Initial residual = 1, Final residual = 0.0285744, No Iterations 5
DILUPBiCGStab:  Solving for Uy:  solution singularity
DILUPBiCGStab:  Solving for Uz:  solution singularity
linear solve U 1517046
[OGL LOG][Proc: 0]global_index_init : 43530 mu s
[OGL LOG][Proc: 0]global_index_init : 4 mu s
[OGL LOG][Proc: 0]global_index_init : 5 mu s
[OGL LOG][Proc: 0]global_index_init : 4 mu s
[OGL LOG][Proc: 0]init_host_sparsity_pattern : 114293084 mu s
[OGL LOG][Proc: 0]update_host_matrix_data : 82914 mu s
[OGL LOG][Proc: 0]convert_coo_to_csr : 10677 mu s
[OGL LOG][Proc: 0]gather_initGuess : 65230 mu s
[OGL LOG][Proc: 0]gather_RHS : 57584 mu s
[OGL LOG][Proc: 0]gather_global_matrix : 0 mu s
[OGL LOG][Proc: 0]init_precond : 4510837 mu s
[OGL LOG][Proc: 0]generate_solver : 7 mu s
[OGL LOG][Proc: 0]solve : 882829562 mu s
[OGL LOG][Proc: 0]retrieve_result_from_device : 62262 mu s
ISAIhipGKOGMRES:  Solving for p, Initial residual = 1, Final residual = 0.000553702, No Iterations 10001
linear solve p 1035412976
time step continuity errors : sum local = 1.04518e-07, global = 6.86891e-21, cumulative = 6.86891e-21
[OGL LOG][Proc: 0]global_index_init : 201 mu s
[OGL LOG][Proc: 0]global_index_init : 3 mu s
[OGL LOG][Proc: 0]global_index_init : 6 mu s
[OGL LOG][Proc: 0]global_index_init : 3 mu s
[OGL LOG][Proc: 0]update_host_matrix_data : 65303 mu s
[OGL LOG][Proc: 0]gather_initGuess : 212 mu s
[OGL LOG][Proc: 0]gather_RHS : 58676 mu s
[OGL LOG][Proc: 0]gather_global_matrix : 1 mu s
read from registry
[OGL LOG][Proc: 0]init_precond : 33 mu s
[OGL LOG][Proc: 0]generate_solver : 1 mu s
[OGL LOG][Proc: 0]solve : 878087807 mu s
[OGL LOG][Proc: 0]retrieve_result_from_device : 72073 mu s
ISAIhipGKOGMRES:  Solving for p, Initial residual = 0.829401, Final residual = 4.605e-05, No Iterations 10001
linear solve p 878317976
time step continuity errors : sum local = 1.04266e-08, global = -1.95215e-22, cumulative = 6.67369e-21
ExecutionTime = 1941.95 s  ClockTime = 1933 s

Time = 0.000666667

Courant Number mean: 0.0305458 max: 0.890857
DILUPBiCGStab:  Solving for Ux, Initial residual = 0.108097, Final residual = 0.0196116, No Iterations 5
DILUPBiCGStab:  Solving for Uy, Initial residual = 0.546222, Final residual = 0.0905995, No Iterations 5
DILUPBiCGStab:  Solving for Uz, Initial residual = 0.968067, Final residual = 0.221517, No Iterations 5
linear solve U 2929650
[OGL LOG][Proc: 0]global_index_init : 333 mu s
[OGL LOG][Proc: 0]global_index_init : 3 mu s
[OGL LOG][Proc: 0]global_index_init : 6 mu s
[OGL LOG][Proc: 0]global_index_init : 3 mu s
[OGL LOG][Proc: 0]update_host_matrix_data : 69149 mu s
[OGL LOG][Proc: 0]gather_initGuess : 6 mu s
[OGL LOG][Proc: 0]gather_RHS : 58358 mu s
[OGL LOG][Proc: 0]gather_global_matrix : 0 mu s
read from registry
[OGL LOG][Proc: 0]init_precond : 11 mu s
[OGL LOG][Proc: 0]generate_solver : 6 mu s
[OGL LOG][Proc: 0]solve : 877326142 mu s
[OGL LOG][Proc: 0]retrieve_result_from_device : 275241 mu s
ISAIhipGKOGMRES:  Solving for p, Initial residual = 0.92683, Final residual = 0.000594048, No Iterations 10001
linear solve p 877758939
time step continuity errors : sum local = 3.80576e-07, global = 7.37625e-21, cumulative = 1.40499e-20
[OGL LOG][Proc: 0]global_index_init : 295 mu s
[OGL LOG][Proc: 0]global_index_init : 3 mu s
[OGL LOG][Proc: 0]global_index_init : 6 mu s
[OGL LOG][Proc: 0]global_index_init : 3 mu s
[OGL LOG][Proc: 0]update_host_matrix_data : 69010 mu s
[OGL LOG][Proc: 0]gather_initGuess : 2 mu s
[OGL LOG][Proc: 0]gather_RHS : 57795 mu s
[OGL LOG][Proc: 0]gather_global_matrix : 0 mu s
read from registry
[OGL LOG][Proc: 0]init_precond : 12 mu s
[OGL LOG][Proc: 0]generate_solver : 1 mu s
[OGL LOG][Proc: 0]solve : 876768288 mu s
[OGL LOG][Proc: 0]retrieve_result_from_device : 263572 mu s
ISAIhipGKOGMRES:  Solving for p, Initial residual = 0.878608, Final residual = 6.99072e-05, No Iterations 10001
linear solve p 877187779
time step continuity errors : sum local = 4.57083e-08, global = -2.2367e-21, cumulative = 1.18132e-20
ExecutionTime = 3704.09 s  ClockTime = 3693 s

Time = 0.001

Courant Number mean: 0.0487595 max: 1.07296
DILUPBiCGStab:  Solving for Ux, Initial residual = 0.0668572, Final residual = 0.00955581, No Iterations 5
DILUPBiCGStab:  Solving for Uy, Initial residual = 0.436983, Final residual = 0.0535158, No Iterations 5
DILUPBiCGStab:  Solving for Uz, Initial residual = 0.875445, Final residual = 0.196758, No Iterations 5
linear solve U 2911981
[OGL LOG][Proc: 0]global_index_init : 770 mu s
[OGL LOG][Proc: 0]global_index_init : 3 mu s
[OGL LOG][Proc: 0]global_index_init : 6 mu s
[OGL LOG][Proc: 0]global_index_init : 4 mu s
[OGL LOG][Proc: 0]update_host_matrix_data : 68896 mu s
[OGL LOG][Proc: 0]gather_initGuess : 2 mu s
[OGL LOG][Proc: 0]gather_RHS : 58171 mu s
[OGL LOG][Proc: 0]gather_global_matrix : 0 mu s
read from registry
[OGL LOG][Proc: 0]init_precond : 10 mu s
[OGL LOG][Proc: 0]generate_solver : 1 mu s
[OGL LOG][Proc: 0]solve : 876912020 mu s
[OGL LOG][Proc: 0]retrieve_result_from_device : 260591 mu s
ISAIhipGKOGMRES:  Solving for p, Initial residual = 0.96304, Final residual = 0.00135887, No Iterations 10001
linear solve p 877329625
time step continuity errors : sum local = 1.404e-06, global = -4.15752e-20, cumulative = -2.9762e-20
[OGL LOG][Proc: 0]global_index_init : 368 mu s
[OGL LOG][Proc: 0]global_index_init : 4 mu s
[OGL LOG][Proc: 0]global_index_init : 5 mu s
[OGL LOG][Proc: 0]global_index_init : 3 mu s
[OGL LOG][Proc: 0]update_host_matrix_data : 68752 mu s
[OGL LOG][Proc: 0]gather_initGuess : 3 mu s
[OGL LOG][Proc: 0]gather_RHS : 58076 mu s
[OGL LOG][Proc: 0]gather_global_matrix : 1 mu s
read from registry
[OGL LOG][Proc: 0]init_precond : 10 mu s
[OGL LOG][Proc: 0]generate_solver : 1 mu s
[OGL LOG][Proc: 0]solve : 876639206 mu s
[OGL LOG][Proc: 0]retrieve_result_from_device : 265891 mu s
ISAIhipGKOGMRES:  Solving for p, Initial residual = 0.923137, Final residual = 0.000164112, No Iterations 10001
linear solve p 877061334
time step continuity errors : sum local = 1.69972e-07, global = 2.02935e-21, cumulative = -2.77326e-20
ExecutionTime = 5465.92 s  ClockTime = 5452 s

End

Finalising parallel run
================================================================================
hash: 43d969dd9492c1ba9044d7625c5f7ad7
/*---------------------------------------------------------------------------*\
| =========                 |                                                 |
| \\      /  F ield         | OpenFOAM: The Open Source CFD Toolbox           |
|  \\    /   O peration     | Version:  v2106                                 |
|   \\  /    A nd           | Website:  www.openfoam.com                      |
|    \\/     M anipulation  |                                                 |
\*---------------------------------------------------------------------------*/
Build  : f815a12bba-20210902 OPENFOAM=2106
Arch   : "LSB;label=32;scalar=64"
Exec   : icoFoam -parallel
Date   : Jan 27 2022
Time   : 23:41:48
Host   : nla-gpu2.ianm.kit.edu
PID    : 3677624
I/O    : uncollated
Case   : /home/greole/data/code/ogl_labbook/lidDrivenCavity3D/resolution/Variation_mesh/300/Variation_matrix_solver/CG_ISAI_HIP/Variation_mpiRank/8/base
nProcs : 8
Hosts  :
(
    (nla-gpu2.ianm.kit.edu 8)
)
Pstream initialized with:
    floatTransfer      : 0
    nProcsSimpleSum    : 0
    commsType          : nonBlocking
    polling iterations : 0
trapFpe: Floating point exception trapping enabled (FOAM_SIGFPE).
fileModificationChecking : Monitoring run-time modified files using timeStampMaster (fileModificationSkew 5, maxFileModificationPolls 20)
allowSystemOperations : Allowing user-supplied system call operations

// * * * * * * * * * * * * * * * * * * * * * * * * * * * * * * * * * * * * * //
Create time

Create mesh for time = 0


PISO: Operating solver in PISO mode

Reading transportProperties

Reading field p

Reading field U

Reading/calculating face flux field phi


Starting time loop

Time = 0.000333333

Courant Number mean: 0 max: 0
DILUPBiCGStab:  Solving for Ux, Initial residual = 1, Final residual = 0.0285744, No Iterations 5
DILUPBiCGStab:  Solving for Uy:  solution singularity
DILUPBiCGStab:  Solving for Uz:  solution singularity
linear solve U 1512809
[OGL LOG][Proc: 0]global_index_init : 26121 mu s
[OGL LOG][Proc: 0]global_index_init : 5 mu s
[OGL LOG][Proc: 0]global_index_init : 4 mu s
[OGL LOG][Proc: 0]global_index_init : 4 mu s
[OGL LOG][Proc: 0]init_host_sparsity_pattern : 115918303 mu s
[OGL LOG][Proc: 0]update_host_matrix_data : 82853 mu s
[OGL LOG][Proc: 0]convert_coo_to_csr : 10403 mu s
[OGL LOG][Proc: 0]gather_initGuess : 64013 mu s
[OGL LOG][Proc: 0]gather_RHS : 58576 mu s
[OGL LOG][Proc: 0]gather_global_matrix : 1 mu s
[OGL LOG][Proc: 0]init_precond : 4512011 mu s
[OGL LOG][Proc: 0]generate_solver : 10 mu s
[OGL LOG][Proc: 0]solve : 21699975 mu s
[OGL LOG][Proc: 0]retrieve_result_from_device : 59126 mu s
ISAIhipGKOCG:  Solving for p, Initial residual = 1, Final residual = 9.48127e-07, No Iterations 1912
linear solve p 176508396
time step continuity errors : sum local = 8.9537e-11, global = 5.38552e-21, cumulative = 5.38552e-21
[OGL LOG][Proc: 0]global_index_init : 242 mu s
[OGL LOG][Proc: 0]global_index_init : 3 mu s
[OGL LOG][Proc: 0]global_index_init : 5 mu s
[OGL LOG][Proc: 0]global_index_init : 3 mu s
[OGL LOG][Proc: 0]update_host_matrix_data : 66308 mu s
[OGL LOG][Proc: 0]gather_initGuess : 13 mu s
[OGL LOG][Proc: 0]gather_RHS : 61469 mu s
[OGL LOG][Proc: 0]gather_global_matrix : 0 mu s
read from registry
[OGL LOG][Proc: 0]init_precond : 29 mu s
[OGL LOG][Proc: 0]generate_solver : 1 mu s
[OGL LOG][Proc: 0]solve : 21326070 mu s
[OGL LOG][Proc: 0]retrieve_result_from_device : 61097 mu s
ISAIhipGKOCG:  Solving for p, Initial residual = 0.827887, Final residual = 4.41834e-08, No Iterations 1977
linear solve p 21548345
time step continuity errors : sum local = 5.00631e-12, global = -5.49932e-22, cumulative = 4.83559e-21
ExecutionTime = 220.27 s  ClockTime = 218 s

Time = 0.000666667

Courant Number mean: 0.0305465 max: 0.890858
DILUPBiCGStab:  Solving for Ux, Initial residual = 0.106029, Final residual = 0.0187003, No Iterations 5
DILUPBiCGStab:  Solving for Uy, Initial residual = 0.546324, Final residual = 0.0883789, No Iterations 5
DILUPBiCGStab:  Solving for Uz, Initial residual = 0.963977, Final residual = 0.176993, No Iterations 5
linear solve U 2912750
[OGL LOG][Proc: 0]global_index_init : 380 mu s
[OGL LOG][Proc: 0]global_index_init : 3 mu s
[OGL LOG][Proc: 0]global_index_init : 4 mu s
[OGL LOG][Proc: 0]global_index_init : 4 mu s
[OGL LOG][Proc: 0]update_host_matrix_data : 68809 mu s
[OGL LOG][Proc: 0]gather_initGuess : 2 mu s
[OGL LOG][Proc: 0]gather_RHS : 58822 mu s
[OGL LOG][Proc: 0]gather_global_matrix : 1 mu s
read from registry
[OGL LOG][Proc: 0]init_precond : 12 mu s
[OGL LOG][Proc: 0]generate_solver : 1 mu s
[OGL LOG][Proc: 0]solve : 21245764 mu s
[OGL LOG][Proc: 0]retrieve_result_from_device : 58725 mu s
ISAIhipGKOCG:  Solving for p, Initial residual = 0.926023, Final residual = 2.1857e-08, No Iterations 1976
linear solve p 21458905
time step continuity errors : sum local = 6.92361e-12, global = 6.53044e-22, cumulative = 5.48863e-21
[OGL LOG][Proc: 0]global_index_init : 566 mu s
[OGL LOG][Proc: 0]global_index_init : 3 mu s
[OGL LOG][Proc: 0]global_index_init : 5 mu s
[OGL LOG][Proc: 0]global_index_init : 3 mu s
[OGL LOG][Proc: 0]update_host_matrix_data : 67108 mu s
[OGL LOG][Proc: 0]gather_initGuess : 2 mu s
[OGL LOG][Proc: 0]gather_RHS : 58498 mu s
[OGL LOG][Proc: 0]gather_global_matrix : 0 mu s
read from registry
[OGL LOG][Proc: 0]init_precond : 12 mu s
[OGL LOG][Proc: 0]generate_solver : 1 mu s
[OGL LOG][Proc: 0]solve : 21433293 mu s
[OGL LOG][Proc: 0]retrieve_result_from_device : 57362 mu s
ISAIhipGKOCG:  Solving for p, Initial residual = 0.879205, Final residual = 2.19335e-08, No Iterations 1976
linear solve p 21643929
time step continuity errors : sum local = 7.08494e-12, global = -1.06216e-21, cumulative = 4.42647e-21
ExecutionTime = 270.26 s  ClockTime = 266 s

Time = 0.001

Courant Number mean: 0.0488089 max: 1.07263
DILUPBiCGStab:  Solving for Ux, Initial residual = 0.0665545, Final residual = 0.00905678, No Iterations 5
DILUPBiCGStab:  Solving for Uy, Initial residual = 0.417099, Final residual = 0.0410158, No Iterations 5
DILUPBiCGStab:  Solving for Uz, Initial residual = 0.846607, Final residual = 0.12139, No Iterations 5
linear solve U 2916067
[OGL LOG][Proc: 0]global_index_init : 246 mu s
[OGL LOG][Proc: 0]global_index_init : 3 mu s
[OGL LOG][Proc: 0]global_index_init : 5 mu s
[OGL LOG][Proc: 0]global_index_init : 14 mu s
[OGL LOG][Proc: 0]update_host_matrix_data : 68944 mu s
[OGL LOG][Proc: 0]gather_initGuess : 2 mu s
[OGL LOG][Proc: 0]gather_RHS : 59240 mu s
[OGL LOG][Proc: 0]gather_global_matrix : 0 mu s
read from registry
[OGL LOG][Proc: 0]init_precond : 11 mu s
[OGL LOG][Proc: 0]generate_solver : 1 mu s
[OGL LOG][Proc: 0]solve : 17237816 mu s
[OGL LOG][Proc: 0]retrieve_result_from_device : 60414 mu s
ISAIhipGKOCG:  Solving for p, Initial residual = 0.960855, Final residual = 4.05159e-07, No Iterations 1581
linear solve p 17453795
time step continuity errors : sum local = 1.97233e-10, global = 1.56478e-22, cumulative = 4.58295e-21
[OGL LOG][Proc: 0]global_index_init : 220 mu s
[OGL LOG][Proc: 0]global_index_init : 3 mu s
[OGL LOG][Proc: 0]global_index_init : 6 mu s
[OGL LOG][Proc: 0]global_index_init : 2 mu s
[OGL LOG][Proc: 0]update_host_matrix_data : 67615 mu s
[OGL LOG][Proc: 0]gather_initGuess : 2 mu s
[OGL LOG][Proc: 0]gather_RHS : 58915 mu s
[OGL LOG][Proc: 0]gather_global_matrix : 1 mu s
read from registry
[OGL LOG][Proc: 0]init_precond : 11 mu s
[OGL LOG][Proc: 0]generate_solver : 1 mu s
[OGL LOG][Proc: 0]solve : 14804515 mu s
[OGL LOG][Proc: 0]retrieve_result_from_device : 62176 mu s
ISAIhipGKOCG:  Solving for p, Initial residual = 0.925757, Final residual = 8.51833e-07, No Iterations 1324
linear solve p 15020711
time step continuity errors : sum local = 4.14565e-10, global = -7.04755e-22, cumulative = 3.87819e-21
ExecutionTime = 309.12 s  ClockTime = 303 s

End

Finalising parallel run
================================================================================
hash: b5ccabfbeea8fd698fad15c2f105c988
/*---------------------------------------------------------------------------*\
| =========                 |                                                 |
| \\      /  F ield         | OpenFOAM: The Open Source CFD Toolbox           |
|  \\    /   O peration     | Version:  v2106                                 |
|   \\  /    A nd           | Website:  www.openfoam.com                      |
|    \\/     M anipulation  |                                                 |
\*---------------------------------------------------------------------------*/
Build  : f815a12bba-20210902 OPENFOAM=2106
Arch   : "LSB;label=32;scalar=64"
Exec   : icoFoam -parallel
Date   : Jan 27 2022
Time   : 23:58:14
Host   : nla-gpu2.ianm.kit.edu
PID    : 3686713
I/O    : uncollated
Case   : /home/greole/data/code/ogl_labbook/lidDrivenCavity3D/resolution/Variation_mesh/200/Variation_matrix_solver/BiCGStab_ISAI_HIP/Variation_mpiRank/8/base
nProcs : 8
Hosts  :
(
    (nla-gpu2.ianm.kit.edu 8)
)
Pstream initialized with:
    floatTransfer      : 0
    nProcsSimpleSum    : 0
    commsType          : nonBlocking
    polling iterations : 0
trapFpe: Floating point exception trapping enabled (FOAM_SIGFPE).
fileModificationChecking : Monitoring run-time modified files using timeStampMaster (fileModificationSkew 5, maxFileModificationPolls 20)
allowSystemOperations : Allowing user-supplied system call operations

// * * * * * * * * * * * * * * * * * * * * * * * * * * * * * * * * * * * * * //
Create time

Create mesh for time = 0


PISO: Operating solver in PISO mode

Reading transportProperties

Reading field p

Reading field U

Reading/calculating face flux field phi


Starting time loop

Time = 0.0005

Courant Number mean: 0 max: 0
DILUPBiCGStab:  Solving for Ux, Initial residual = 1, Final residual = 0.0216481, No Iterations 5
DILUPBiCGStab:  Solving for Uy:  solution singularity
DILUPBiCGStab:  Solving for Uz:  solution singularity
linear solve U 439480
[OGL LOG][Proc: 0]global_index_init : 25714 mu s
[OGL LOG][Proc: 0]global_index_init : 5 mu s
[OGL LOG][Proc: 0]global_index_init : 4 mu s
[OGL LOG][Proc: 0]global_index_init : 4 mu s
[OGL LOG][Proc: 0]init_host_sparsity_pattern : 18488586 mu s
[OGL LOG][Proc: 0]update_host_matrix_data : 25405 mu s
[OGL LOG][Proc: 0]convert_coo_to_csr : 6033 mu s
[OGL LOG][Proc: 0]gather_initGuess : 24346 mu s
[OGL LOG][Proc: 0]gather_RHS : 19797 mu s
[OGL LOG][Proc: 0]gather_global_matrix : 1 mu s
[OGL LOG][Proc: 0]init_precond : 1157455 mu s
[OGL LOG][Proc: 0]generate_solver : 8 mu s
[OGL LOG][Proc: 0]solve : 66868022 mu s
[OGL LOG][Proc: 0]retrieve_result_from_device : 19166 mu s
ISAIhipGKOBiCGStab:  Solving for p, Initial residual = 1, Final residual = 7.18074e-07, No Iterations 9563
linear solve p 87471737
time step continuity errors : sum local = 6.27e-09, global = -3.76101e-21, cumulative = -3.76101e-21
[OGL LOG][Proc: 0]global_index_init : 217 mu s
[OGL LOG][Proc: 0]global_index_init : 3 mu s
[OGL LOG][Proc: 0]global_index_init : 6 mu s
[OGL LOG][Proc: 0]global_index_init : 2 mu s
[OGL LOG][Proc: 0]update_host_matrix_data : 18556 mu s
[OGL LOG][Proc: 0]gather_initGuess : 12 mu s
[OGL LOG][Proc: 0]gather_RHS : 24065 mu s
[OGL LOG][Proc: 0]gather_global_matrix : 1 mu s
read from registry
[OGL LOG][Proc: 0]init_precond : 31 mu s
[OGL LOG][Proc: 0]generate_solver : 1 mu s
[OGL LOG][Proc: 0]solve : 26098109 mu s
[OGL LOG][Proc: 0]retrieve_result_from_device : 24390 mu s
ISAIhipGKOBiCGStab:  Solving for p, Initial residual = 0.81518, Final residual = 1.92924e-12, No Iterations 4011
linear solve p 26176553
time step continuity errors : sum local = 3.69871e-15, global = -2.23279e-21, cumulative = -5.99379e-21
ExecutionTime = 137.96 s  ClockTime = 120 s

Time = 0.001

Courant Number mean: 0.0392461 max: 0.865942
DILUPBiCGStab:  Solving for Ux, Initial residual = 0.117616, Final residual = 0.0131468, No Iterations 5
DILUPBiCGStab:  Solving for Uy, Initial residual = 0.506037, Final residual = 0.0494692, No Iterations 5
DILUPBiCGStab:  Solving for Uz, Initial residual = 0.960678, Final residual = 0.101185, No Iterations 5
linear solve U 848806
[OGL LOG][Proc: 0]global_index_init : 320 mu s
[OGL LOG][Proc: 0]global_index_init : 3 mu s
[OGL LOG][Proc: 0]global_index_init : 5 mu s
[OGL LOG][Proc: 0]global_index_init : 4 mu s
[OGL LOG][Proc: 0]update_host_matrix_data : 18431 mu s
[OGL LOG][Proc: 0]gather_initGuess : 1 mu s
[OGL LOG][Proc: 0]gather_RHS : 23341 mu s
[OGL LOG][Proc: 0]gather_global_matrix : 1 mu s
read from registry
[OGL LOG][Proc: 0]init_precond : 12 mu s
[OGL LOG][Proc: 0]generate_solver : 1 mu s
[OGL LOG][Proc: 0]solve : 48111622 mu s
[OGL LOG][Proc: 0]retrieve_result_from_device : 31686 mu s
ISAIhipGKOBiCGStab:  Solving for p, Initial residual = 0.897315, Final residual = 4.06995e-07, No Iterations 7520
linear solve p 48196809
time step continuity errors : sum local = 2.07573e-10, global = -4.24378e-21, cumulative = -1.02376e-20
[OGL LOG][Proc: 0]global_index_init : 147 mu s
[OGL LOG][Proc: 0]global_index_init : 5 mu s
[OGL LOG][Proc: 0]global_index_init : 5 mu s
[OGL LOG][Proc: 0]global_index_init : 3 mu s
[OGL LOG][Proc: 0]update_host_matrix_data : 18360 mu s
[OGL LOG][Proc: 0]gather_initGuess : 1 mu s
[OGL LOG][Proc: 0]gather_RHS : 23335 mu s
[OGL LOG][Proc: 0]gather_global_matrix : 1 mu s
read from registry
[OGL LOG][Proc: 0]init_precond : 11 mu s
[OGL LOG][Proc: 0]generate_solver : 1 mu s
[OGL LOG][Proc: 0]solve : 20143429 mu s
[OGL LOG][Proc: 0]retrieve_result_from_device : 22906 mu s
ISAIhipGKOBiCGStab:  Solving for p, Initial residual = 0.846841, Final residual = 3.69658e-13, No Iterations 3150
linear solve p 20219396
time step continuity errors : sum local = 1.47856e-15, global = 4.83124e-22, cumulative = -9.75445e-21
ExecutionTime = 218.39 s  ClockTime = 189 s

Time = 0.0015

Courant Number mean: 0.0615403 max: 1.02143
DILUPBiCGStab:  Solving for Ux, Initial residual = 0.0685124, Final residual = 0.00554306, No Iterations 5
DILUPBiCGStab:  Solving for Uy, Initial residual = 0.357897, Final residual = 0.0211477, No Iterations 5
DILUPBiCGStab:  Solving for Uz, Initial residual = 0.82014, Final residual = 0.0702936, No Iterations 5
linear solve U 847660
[OGL LOG][Proc: 0]global_index_init : 211 mu s
[OGL LOG][Proc: 0]global_index_init : 3 mu s
[OGL LOG][Proc: 0]global_index_init : 5 mu s
[OGL LOG][Proc: 0]global_index_init : 3 mu s
[OGL LOG][Proc: 0]update_host_matrix_data : 17061 mu s
[OGL LOG][Proc: 0]gather_initGuess : 1 mu s
[OGL LOG][Proc: 0]gather_RHS : 23522 mu s
[OGL LOG][Proc: 0]gather_global_matrix : 0 mu s
read from registry
[OGL LOG][Proc: 0]init_precond : 10 mu s
[OGL LOG][Proc: 0]generate_solver : 1 mu s
[OGL LOG][Proc: 0]solve : 8062618 mu s
[OGL LOG][Proc: 0]retrieve_result_from_device : 20844 mu s
ISAIhipGKOBiCGStab:  Solving for p, Initial residual = 0.937568, Final residual = 1.19436e-07, No Iterations 1260
linear solve p 8134651
time step continuity errors : sum local = 7.9257e-11, global = -3.30665e-21, cumulative = -1.30611e-20
[OGL LOG][Proc: 0]global_index_init : 404 mu s
[OGL LOG][Proc: 0]global_index_init : 3 mu s
[OGL LOG][Proc: 0]global_index_init : 6 mu s
[OGL LOG][Proc: 0]global_index_init : 3 mu s
[OGL LOG][Proc: 0]update_host_matrix_data : 18484 mu s
[OGL LOG][Proc: 0]gather_initGuess : 1 mu s
[OGL LOG][Proc: 0]gather_RHS : 23290 mu s
[OGL LOG][Proc: 0]gather_global_matrix : 0 mu s
read from registry
[OGL LOG][Proc: 0]init_precond : 11 mu s
[OGL LOG][Proc: 0]generate_solver : 1 mu s
[OGL LOG][Proc: 0]solve : 5127093 mu s
[OGL LOG][Proc: 0]retrieve_result_from_device : 19444 mu s
ISAIhipGKOBiCGStab:  Solving for p, Initial residual = 0.905008, Final residual = 2.16929e-07, No Iterations 800
linear solve p 5199043
time step continuity errors : sum local = 1.52861e-10, global = -7.7954e-22, cumulative = -1.38406e-20
ExecutionTime = 235.16 s  ClockTime = 204 s

End

Finalising parallel run
================================================================================
hash: bd9a787e7045196425071f66b865214e
/*---------------------------------------------------------------------------*\
| =========                 |                                                 |
| \\      /  F ield         | OpenFOAM: The Open Source CFD Toolbox           |
|  \\    /   O peration     | Version:  v2106                                 |
|   \\  /    A nd           | Website:  www.openfoam.com                      |
|    \\/     M anipulation  |                                                 |
\*---------------------------------------------------------------------------*/
Build  : f815a12bba-20210902 OPENFOAM=2106
Arch   : "LSB;label=32;scalar=64"
Exec   : icoFoam -parallel
Date   : Jan 28 2022
Time   : 00:01:39
Host   : nla-gpu2.ianm.kit.edu
PID    : 3688664
I/O    : uncollated
Case   : /home/greole/data/code/ogl_labbook/lidDrivenCavity3D/resolution/Variation_mesh/200/Variation_matrix_solver/BiCGStab_NoPrecond_HIP/Variation_mpiRank/8/base
nProcs : 8
Hosts  :
(
    (nla-gpu2.ianm.kit.edu 8)
)
Pstream initialized with:
    floatTransfer      : 0
    nProcsSimpleSum    : 0
    commsType          : nonBlocking
    polling iterations : 0
trapFpe: Floating point exception trapping enabled (FOAM_SIGFPE).
fileModificationChecking : Monitoring run-time modified files using timeStampMaster (fileModificationSkew 5, maxFileModificationPolls 20)
allowSystemOperations : Allowing user-supplied system call operations

// * * * * * * * * * * * * * * * * * * * * * * * * * * * * * * * * * * * * * //
Create time

Create mesh for time = 0


PISO: Operating solver in PISO mode

Reading transportProperties

Reading field p

Reading field U

Reading/calculating face flux field phi


Starting time loop

Time = 0.0005

Courant Number mean: 0 max: 0
DILUPBiCGStab:  Solving for Ux, Initial residual = 1, Final residual = 0.0216481, No Iterations 5
DILUPBiCGStab:  Solving for Uy:  solution singularity
DILUPBiCGStab:  Solving for Uz:  solution singularity
linear solve U 445487
[OGL LOG][Proc: 0]global_index_init : 24926 mu s
[OGL LOG][Proc: 0]global_index_init : 3 mu s
[OGL LOG][Proc: 0]global_index_init : 5 mu s
[OGL LOG][Proc: 0]global_index_init : 5 mu s
[OGL LOG][Proc: 0]init_host_sparsity_pattern : 18542893 mu s
[OGL LOG][Proc: 0]update_host_matrix_data : 26197 mu s
[OGL LOG][Proc: 0]convert_coo_to_csr : 6295 mu s
[OGL LOG][Proc: 0]gather_initGuess : 23390 mu s
[OGL LOG][Proc: 0]gather_RHS : 19970 mu s
[OGL LOG][Proc: 0]gather_global_matrix : 0 mu s
[OGL LOG][Proc: 0]init_precond : 83 mu s
[OGL LOG][Proc: 0]generate_solver : 21 mu s
[OGL LOG][Proc: 0]solve : 8206213 mu s
[OGL LOG][Proc: 0]retrieve_result_from_device : 19710 mu s
nonehipGKOBiCGStab:  Solving for p, Initial residual = 1, Final residual = 1.38639e-07, No Iterations 1596
linear solve p 27728004
time step continuity errors : sum local = 3.69011e-05, global = -3.33519e-19, cumulative = -3.33519e-19
[OGL LOG][Proc: 0]global_index_init : 355 mu s
[OGL LOG][Proc: 0]global_index_init : 3 mu s
[OGL LOG][Proc: 0]global_index_init : 5 mu s
[OGL LOG][Proc: 0]global_index_init : 3 mu s
[OGL LOG][Proc: 0]update_host_matrix_data : 18476 mu s
[OGL LOG][Proc: 0]gather_initGuess : 13 mu s
[OGL LOG][Proc: 0]gather_RHS : 24209 mu s
[OGL LOG][Proc: 0]gather_global_matrix : 0 mu s
read from registry
[OGL LOG][Proc: 0]init_precond : 28 mu s
[OGL LOG][Proc: 0]generate_solver : 2 mu s
[OGL LOG][Proc: 0]solve : 7802694 mu s
[OGL LOG][Proc: 0]retrieve_result_from_device : 21677 mu s
nonehipGKOBiCGStab:  Solving for p, Initial residual = 0.845147, Final residual = 3.38843e-07, No Iterations 1701
linear solve p 7877999
time step continuity errors : sum local = 1.19339e-10, global = -5.72092e-22, cumulative = -3.34091e-19
ExecutionTime = 45.41 s  ClockTime = 41 s

Time = 0.001

Courant Number mean: 0.0392466 max: 0.865942
DILUPBiCGStab:  Solving for Ux, Initial residual = 0.117842, Final residual = 0.0132266, No Iterations 5
DILUPBiCGStab:  Solving for Uy, Initial residual = 0.507437, Final residual = 0.0498642, No Iterations 5
DILUPBiCGStab:  Solving for Uz, Initial residual = 0.93006, Final residual = 0.112862, No Iterations 5
linear solve U 857545
[OGL LOG][Proc: 0]global_index_init : 190 mu s
[OGL LOG][Proc: 0]global_index_init : 3 mu s
[OGL LOG][Proc: 0]global_index_init : 5 mu s
[OGL LOG][Proc: 0]global_index_init : 4 mu s
[OGL LOG][Proc: 0]update_host_matrix_data : 18563 mu s
[OGL LOG][Proc: 0]gather_initGuess : 1 mu s
[OGL LOG][Proc: 0]gather_RHS : 23683 mu s
[OGL LOG][Proc: 0]gather_global_matrix : 0 mu s
read from registry
[OGL LOG][Proc: 0]init_precond : 10 mu s
[OGL LOG][Proc: 0]generate_solver : 2 mu s
[OGL LOG][Proc: 0]solve : 7463251 mu s
[OGL LOG][Proc: 0]retrieve_result_from_device : 19797 mu s
nonehipGKOBiCGStab:  Solving for p, Initial residual = 0.916731, Final residual = 1.05921e-07, No Iterations 1632
linear solve p 7536085
time step continuity errors : sum local = 1.26202e-10, global = -1.70156e-21, cumulative = -3.35793e-19
[OGL LOG][Proc: 0]global_index_init : 232 mu s
[OGL LOG][Proc: 0]global_index_init : 3 mu s
[OGL LOG][Proc: 0]global_index_init : 4 mu s
[OGL LOG][Proc: 0]global_index_init : 4 mu s
[OGL LOG][Proc: 0]update_host_matrix_data : 17168 mu s
[OGL LOG][Proc: 0]gather_initGuess : 1 mu s
[OGL LOG][Proc: 0]gather_RHS : 24130 mu s
[OGL LOG][Proc: 0]gather_global_matrix : 0 mu s
read from registry
[OGL LOG][Proc: 0]init_precond : 14 mu s
[OGL LOG][Proc: 0]generate_solver : 2 mu s
[OGL LOG][Proc: 0]solve : 6827533 mu s
[OGL LOG][Proc: 0]retrieve_result_from_device : 20039 mu s
nonehipGKOBiCGStab:  Solving for p, Initial residual = 0.859807, Final residual = 6.24327e-07, No Iterations 1495
linear solve p 6899515
time step continuity errors : sum local = 7.65107e-10, global = -1.78402e-21, cumulative = -3.37577e-19
ExecutionTime = 64.3 s  ClockTime = 57 s

Time = 0.0015

Courant Number mean: 0.0615542 max: 1.02142
DILUPBiCGStab:  Solving for Ux, Initial residual = 0.0687782, Final residual = 0.0055822, No Iterations 5
DILUPBiCGStab:  Solving for Uy, Initial residual = 0.360555, Final residual = 0.0217831, No Iterations 5
DILUPBiCGStab:  Solving for Uz, Initial residual = 0.842452, Final residual = 0.0692871, No Iterations 5
linear solve U 860674
[OGL LOG][Proc: 0]global_index_init : 156 mu s
[OGL LOG][Proc: 0]global_index_init : 2 mu s
[OGL LOG][Proc: 0]global_index_init : 4 mu s
[OGL LOG][Proc: 0]global_index_init : 4 mu s
[OGL LOG][Proc: 0]update_host_matrix_data : 17200 mu s
[OGL LOG][Proc: 0]gather_initGuess : 1 mu s
[OGL LOG][Proc: 0]gather_RHS : 23771 mu s
[OGL LOG][Proc: 0]gather_global_matrix : 0 mu s
read from registry
[OGL LOG][Proc: 0]init_precond : 9 mu s
[OGL LOG][Proc: 0]generate_solver : 2 mu s
[OGL LOG][Proc: 0]solve : 3918622 mu s
[OGL LOG][Proc: 0]retrieve_result_from_device : 19737 mu s
nonehipGKOBiCGStab:  Solving for p, Initial residual = 0.944389, Final residual = 9.43624e-07, No Iterations 856
linear solve p 3989748
time step continuity errors : sum local = 2.91465e-09, global = 1.70852e-21, cumulative = -3.35868e-19
[OGL LOG][Proc: 0]global_index_init : 173 mu s
[OGL LOG][Proc: 0]global_index_init : 3 mu s
[OGL LOG][Proc: 0]global_index_init : 4 mu s
[OGL LOG][Proc: 0]global_index_init : 4 mu s
[OGL LOG][Proc: 0]update_host_matrix_data : 17437 mu s
[OGL LOG][Proc: 0]gather_initGuess : 1 mu s
[OGL LOG][Proc: 0]gather_RHS : 23944 mu s
[OGL LOG][Proc: 0]gather_global_matrix : 0 mu s
read from registry
[OGL LOG][Proc: 0]init_precond : 10 mu s
[OGL LOG][Proc: 0]generate_solver : 2 mu s
[OGL LOG][Proc: 0]solve : 3353683 mu s
[OGL LOG][Proc: 0]retrieve_result_from_device : 19330 mu s
nonehipGKOBiCGStab:  Solving for p, Initial residual = 0.903703, Final residual = 5.86899e-07, No Iterations 731
linear solve p 3424447
time step continuity errors : sum local = 7.6857e-10, global = 2.38177e-21, cumulative = -3.33487e-19
ExecutionTime = 74.69 s  ClockTime = 66 s

End

Finalising parallel run
================================================================================
hash: 13c0ab42aa6888f20ee55b5374a78129
/*---------------------------------------------------------------------------*\
| =========                 |                                                 |
| \\      /  F ield         | OpenFOAM: The Open Source CFD Toolbox           |
|  \\    /   O peration     | Version:  v2106                                 |
|   \\  /    A nd           | Website:  www.openfoam.com                      |
|    \\/     M anipulation  |                                                 |
\*---------------------------------------------------------------------------*/
Build  : f815a12bba-20210902 OPENFOAM=2106
Arch   : "LSB;label=32;scalar=64"
Exec   : icoFoam -parallel
Date   : Jan 28 2022
Time   : 00:02:45
Host   : nla-gpu2.ianm.kit.edu
PID    : 3689365
I/O    : uncollated
Case   : /home/greole/data/code/ogl_labbook/lidDrivenCavity3D/resolution/Variation_mesh/200/Variation_matrix_solver/CG_NoPrecond_HIP/Variation_mpiRank/8/base
nProcs : 8
Hosts  :
(
    (nla-gpu2.ianm.kit.edu 8)
)
Pstream initialized with:
    floatTransfer      : 0
    nProcsSimpleSum    : 0
    commsType          : nonBlocking
    polling iterations : 0
trapFpe: Floating point exception trapping enabled (FOAM_SIGFPE).
fileModificationChecking : Monitoring run-time modified files using timeStampMaster (fileModificationSkew 5, maxFileModificationPolls 20)
allowSystemOperations : Allowing user-supplied system call operations

// * * * * * * * * * * * * * * * * * * * * * * * * * * * * * * * * * * * * * //
Create time

Create mesh for time = 0


PISO: Operating solver in PISO mode

Reading transportProperties

Reading field p

Reading field U

Reading/calculating face flux field phi


Starting time loop

Time = 0.0005

Courant Number mean: 0 max: 0
DILUPBiCGStab:  Solving for Ux, Initial residual = 1, Final residual = 0.0216481, No Iterations 5
DILUPBiCGStab:  Solving for Uy:  solution singularity
DILUPBiCGStab:  Solving for Uz:  solution singularity
linear solve U 440028
[OGL LOG][Proc: 0]global_index_init : 45732 mu s
[OGL LOG][Proc: 0]global_index_init : 3 mu s
[OGL LOG][Proc: 0]global_index_init : 5 mu s
[OGL LOG][Proc: 0]global_index_init : 4 mu s
[OGL LOG][Proc: 0]init_host_sparsity_pattern : 18593459 mu s
[OGL LOG][Proc: 0]update_host_matrix_data : 25722 mu s
[OGL LOG][Proc: 0]convert_coo_to_csr : 5757 mu s
[OGL LOG][Proc: 0]gather_initGuess : 23262 mu s
[OGL LOG][Proc: 0]gather_RHS : 20074 mu s
[OGL LOG][Proc: 0]gather_global_matrix : 0 mu s
[OGL LOG][Proc: 0]init_precond : 73 mu s
[OGL LOG][Proc: 0]generate_solver : 16 mu s
[OGL LOG][Proc: 0]solve : 4813992 mu s
[OGL LOG][Proc: 0]retrieve_result_from_device : 20029 mu s
nonehipGKOCG:  Solving for p, Initial residual = 1, Final residual = 9.9009e-07, No Iterations 1749
linear solve p 24328961
time step continuity errors : sum local = 1.87367e-10, global = -4.6141e-21, cumulative = -4.6141e-21
[OGL LOG][Proc: 0]global_index_init : 570 mu s
[OGL LOG][Proc: 0]global_index_init : 4 mu s
[OGL LOG][Proc: 0]global_index_init : 4 mu s
[OGL LOG][Proc: 0]global_index_init : 5 mu s
[OGL LOG][Proc: 0]update_host_matrix_data : 18414 mu s
[OGL LOG][Proc: 0]gather_initGuess : 12 mu s
[OGL LOG][Proc: 0]gather_RHS : 24071 mu s
[OGL LOG][Proc: 0]gather_global_matrix : 0 mu s
read from registry
[OGL LOG][Proc: 0]init_precond : 30 mu s
[OGL LOG][Proc: 0]generate_solver : 2 mu s
[OGL LOG][Proc: 0]solve : 4400273 mu s
[OGL LOG][Proc: 0]retrieve_result_from_device : 19389 mu s
nonehipGKOCG:  Solving for p, Initial residual = 0.81518, Final residual = 2.09459e-07, No Iterations 1795
linear solve p 4473506
time step continuity errors : sum local = 4.81474e-11, global = -4.61609e-22, cumulative = -5.07571e-21
ExecutionTime = 36.7 s  ClockTime = 35 s

Time = 0.001

Courant Number mean: 0.0392461 max: 0.865942
DILUPBiCGStab:  Solving for Ux, Initial residual = 0.117616, Final residual = 0.0131468, No Iterations 5
DILUPBiCGStab:  Solving for Uy, Initial residual = 0.506037, Final residual = 0.0494692, No Iterations 5
DILUPBiCGStab:  Solving for Uz, Initial residual = 0.96068, Final residual = 0.101188, No Iterations 5
linear solve U 859332
[OGL LOG][Proc: 0]global_index_init : 115 mu s
[OGL LOG][Proc: 0]global_index_init : 4 mu s
[OGL LOG][Proc: 0]global_index_init : 6 mu s
[OGL LOG][Proc: 0]global_index_init : 3 mu s
[OGL LOG][Proc: 0]update_host_matrix_data : 17267 mu s
[OGL LOG][Proc: 0]gather_initGuess : 1 mu s
[OGL LOG][Proc: 0]gather_RHS : 23870 mu s
[OGL LOG][Proc: 0]gather_global_matrix : 0 mu s
read from registry
[OGL LOG][Proc: 0]init_precond : 10 mu s
[OGL LOG][Proc: 0]generate_solver : 2 mu s
[OGL LOG][Proc: 0]solve : 4343925 mu s
[OGL LOG][Proc: 0]retrieve_result_from_device : 19709 mu s
nonehipGKOCG:  Solving for p, Initial residual = 0.897316, Final residual = 2.23821e-07, No Iterations 1776
linear solve p 4415440
time step continuity errors : sum local = 1.14146e-10, global = 1.59553e-21, cumulative = -3.48018e-21
[OGL LOG][Proc: 0]global_index_init : 162 mu s
[OGL LOG][Proc: 0]global_index_init : 3 mu s
[OGL LOG][Proc: 0]global_index_init : 5 mu s
[OGL LOG][Proc: 0]global_index_init : 3 mu s
[OGL LOG][Proc: 0]update_host_matrix_data : 17051 mu s
[OGL LOG][Proc: 0]gather_initGuess : 1 mu s
[OGL LOG][Proc: 0]gather_RHS : 23893 mu s
[OGL LOG][Proc: 0]gather_global_matrix : 0 mu s
read from registry
[OGL LOG][Proc: 0]init_precond : 10 mu s
[OGL LOG][Proc: 0]generate_solver : 2 mu s
[OGL LOG][Proc: 0]solve : 4351172 mu s
[OGL LOG][Proc: 0]retrieve_result_from_device : 20247 mu s
nonehipGKOCG:  Solving for p, Initial residual = 0.846842, Final residual = 2.08966e-07, No Iterations 1776
linear solve p 4422613
time step continuity errors : sum local = 1.08693e-10, global = 3.51305e-21, cumulative = 3.28759e-23
ExecutionTime = 48.66 s  ClockTime = 45 s

Time = 0.0015

Courant Number mean: 0.0615403 max: 1.02143
DILUPBiCGStab:  Solving for Ux, Initial residual = 0.0685124, Final residual = 0.00554306, No Iterations 5
DILUPBiCGStab:  Solving for Uy, Initial residual = 0.357897, Final residual = 0.0211478, No Iterations 5
DILUPBiCGStab:  Solving for Uz, Initial residual = 0.820139, Final residual = 0.0702935, No Iterations 5
linear solve U 853846
[OGL LOG][Proc: 0]global_index_init : 135 mu s
[OGL LOG][Proc: 0]global_index_init : 2 mu s
[OGL LOG][Proc: 0]global_index_init : 5 mu s
[OGL LOG][Proc: 0]global_index_init : 4 mu s
[OGL LOG][Proc: 0]update_host_matrix_data : 18512 mu s
[OGL LOG][Proc: 0]gather_initGuess : 1 mu s
[OGL LOG][Proc: 0]gather_RHS : 23421 mu s
[OGL LOG][Proc: 0]gather_global_matrix : 0 mu s
read from registry
[OGL LOG][Proc: 0]init_precond : 9 mu s
[OGL LOG][Proc: 0]generate_solver : 1 mu s
[OGL LOG][Proc: 0]solve : 4375797 mu s
[OGL LOG][Proc: 0]retrieve_result_from_device : 21001 mu s
nonehipGKOCG:  Solving for p, Initial residual = 0.937568, Final residual = 1.92201e-07, No Iterations 1776
linear solve p 4449613
time step continuity errors : sum local = 1.27516e-10, global = 4.91249e-22, cumulative = 5.24125e-22
[OGL LOG][Proc: 0]global_index_init : 158 mu s
[OGL LOG][Proc: 0]global_index_init : 3 mu s
[OGL LOG][Proc: 0]global_index_init : 5 mu s
[OGL LOG][Proc: 0]global_index_init : 4 mu s
[OGL LOG][Proc: 0]update_host_matrix_data : 17156 mu s
[OGL LOG][Proc: 0]gather_initGuess : 1 mu s
[OGL LOG][Proc: 0]gather_RHS : 23664 mu s
[OGL LOG][Proc: 0]gather_global_matrix : 0 mu s
read from registry
[OGL LOG][Proc: 0]init_precond : 13 mu s
[OGL LOG][Proc: 0]generate_solver : 2 mu s
[OGL LOG][Proc: 0]solve : 4378234 mu s
[OGL LOG][Proc: 0]retrieve_result_from_device : 20962 mu s
nonehipGKOCG:  Solving for p, Initial residual = 0.905008, Final residual = 1.85503e-07, No Iterations 1776
linear solve p 4449921
time step continuity errors : sum local = 1.22094e-10, global = -6.45518e-22, cumulative = -1.21392e-22
ExecutionTime = 60.73 s  ClockTime = 55 s

End

Finalising parallel run
================================================================================
hash: 3f9619c2af8aea574884d060650501a0
/*---------------------------------------------------------------------------*\
| =========                 |                                                 |
| \\      /  F ield         | OpenFOAM: The Open Source CFD Toolbox           |
|  \\    /   O peration     | Version:  v2106                                 |
|   \\  /    A nd           | Website:  www.openfoam.com                      |
|    \\/     M anipulation  |                                                 |
\*---------------------------------------------------------------------------*/
Build  : f815a12bba-20210902 OPENFOAM=2106
Arch   : "LSB;label=32;scalar=64"
Exec   : icoFoam -parallel
Date   : Jan 28 2022
Time   : 00:03:41
Host   : nla-gpu2.ianm.kit.edu
PID    : 3689873
I/O    : uncollated
Case   : /home/greole/data/code/ogl_labbook/lidDrivenCavity3D/resolution/Variation_mesh/200/Variation_matrix_solver/GMRES_ISAI_HIP/Variation_mpiRank/8/base
nProcs : 8
Hosts  :
(
    (nla-gpu2.ianm.kit.edu 8)
)
Pstream initialized with:
    floatTransfer      : 0
    nProcsSimpleSum    : 0
    commsType          : nonBlocking
    polling iterations : 0
trapFpe: Floating point exception trapping enabled (FOAM_SIGFPE).
fileModificationChecking : Monitoring run-time modified files using timeStampMaster (fileModificationSkew 5, maxFileModificationPolls 20)
allowSystemOperations : Allowing user-supplied system call operations

// * * * * * * * * * * * * * * * * * * * * * * * * * * * * * * * * * * * * * //
Create time

Create mesh for time = 0


PISO: Operating solver in PISO mode

Reading transportProperties

Reading field p

Reading field U

Reading/calculating face flux field phi


Starting time loop

Time = 0.0005

Courant Number mean: 0 max: 0
DILUPBiCGStab:  Solving for Ux, Initial residual = 1, Final residual = 0.0216481, No Iterations 5
DILUPBiCGStab:  Solving for Uy:  solution singularity
DILUPBiCGStab:  Solving for Uz:  solution singularity
linear solve U 440704
[OGL LOG][Proc: 0]global_index_init : 55816 mu s
[OGL LOG][Proc: 0]global_index_init : 6 mu s
[OGL LOG][Proc: 0]global_index_init : 5 mu s
[OGL LOG][Proc: 0]global_index_init : 4 mu s
[OGL LOG][Proc: 0]init_host_sparsity_pattern : 18516015 mu s
[OGL LOG][Proc: 0]update_host_matrix_data : 25556 mu s
[OGL LOG][Proc: 0]convert_coo_to_csr : 6112 mu s
[OGL LOG][Proc: 0]gather_initGuess : 24180 mu s
[OGL LOG][Proc: 0]gather_RHS : 19689 mu s
[OGL LOG][Proc: 0]gather_global_matrix : 0 mu s
[OGL LOG][Proc: 0]init_precond : 1158126 mu s
[OGL LOG][Proc: 0]generate_solver : 10 mu s
[OGL LOG][Proc: 0]solve : 264405351 mu s
[OGL LOG][Proc: 0]retrieve_result_from_device : 20144 mu s
ISAIhipGKOGMRES:  Solving for p, Initial residual = 1, Final residual = 0.000122621, No Iterations 10001
linear solve p 285021916
time step continuity errors : sum local = 4.6347e-08, global = -7.67293e-21, cumulative = -7.67293e-21
[OGL LOG][Proc: 0]global_index_init : 146 mu s
[OGL LOG][Proc: 0]global_index_init : 4 mu s
[OGL LOG][Proc: 0]global_index_init : 5 mu s
[OGL LOG][Proc: 0]global_index_init : 3 mu s
[OGL LOG][Proc: 0]update_host_matrix_data : 18236 mu s
[OGL LOG][Proc: 0]gather_initGuess : 13 mu s
[OGL LOG][Proc: 0]gather_RHS : 24383 mu s
[OGL LOG][Proc: 0]gather_global_matrix : 0 mu s
read from registry
[OGL LOG][Proc: 0]init_precond : 29 mu s
[OGL LOG][Proc: 0]generate_solver : 0 mu s
[OGL LOG][Proc: 0]solve : 260709147 mu s
[OGL LOG][Proc: 0]retrieve_result_from_device : 104946 mu s
ISAIhipGKOGMRES:  Solving for p, Initial residual = 0.815436, Final residual = 1.61149e-06, No Iterations 10001
linear solve p 260868012
time step continuity errors : sum local = 7.32119e-10, global = -3.25392e-22, cumulative = -7.99832e-21
ExecutionTime = 558.94 s  ClockTime = 551 s

Time = 0.001

Courant Number mean: 0.0392461 max: 0.865942
DILUPBiCGStab:  Solving for Ux, Initial residual = 0.117731, Final residual = 0.0131833, No Iterations 5
DILUPBiCGStab:  Solving for Uy, Initial residual = 0.505985, Final residual = 0.0495724, No Iterations 5
DILUPBiCGStab:  Solving for Uz, Initial residual = 0.961477, Final residual = 0.121673, No Iterations 5
linear solve U 851482
[OGL LOG][Proc: 0]global_index_init : 139 mu s
[OGL LOG][Proc: 0]global_index_init : 4 mu s
[OGL LOG][Proc: 0]global_index_init : 5 mu s
[OGL LOG][Proc: 0]global_index_init : 4 mu s
[OGL LOG][Proc: 0]update_host_matrix_data : 18205 mu s
[OGL LOG][Proc: 0]gather_initGuess : 1 mu s
[OGL LOG][Proc: 0]gather_RHS : 23768 mu s
[OGL LOG][Proc: 0]gather_global_matrix : 0 mu s
read from registry
[OGL LOG][Proc: 0]init_precond : 10 mu s
[OGL LOG][Proc: 0]generate_solver : 0 mu s
[OGL LOG][Proc: 0]solve : 260836027 mu s
[OGL LOG][Proc: 0]retrieve_result_from_device : 243077 mu s
ISAIhipGKOGMRES:  Solving for p, Initial residual = 0.897621, Final residual = 0.000110925, No Iterations 10001
linear solve p 261131418
time step continuity errors : sum local = 1.13401e-07, global = -3.66606e-21, cumulative = -1.16644e-20
[OGL LOG][Proc: 0]global_index_init : 117 mu s
[OGL LOG][Proc: 0]global_index_init : 3 mu s
[OGL LOG][Proc: 0]global_index_init : 4 mu s
[OGL LOG][Proc: 0]global_index_init : 4 mu s
[OGL LOG][Proc: 0]update_host_matrix_data : 17278 mu s
[OGL LOG][Proc: 0]gather_initGuess : 1 mu s
[OGL LOG][Proc: 0]gather_RHS : 24194 mu s
[OGL LOG][Proc: 0]gather_global_matrix : 0 mu s
read from registry
[OGL LOG][Proc: 0]init_precond : 9 mu s
[OGL LOG][Proc: 0]generate_solver : 0 mu s
[OGL LOG][Proc: 0]solve : 261174793 mu s
[OGL LOG][Proc: 0]retrieve_result_from_device : 224695 mu s
ISAIhipGKOGMRES:  Solving for p, Initial residual = 0.847006, Final residual = 2.06891e-06, No Iterations 10001
linear solve p 261451273
time step continuity errors : sum local = 2.14893e-09, global = 2.75968e-22, cumulative = -1.13884e-20
ExecutionTime = 1088.56 s  ClockTime = 1075 s

Time = 0.0015

Courant Number mean: 0.061524 max: 1.02128
DILUPBiCGStab:  Solving for Ux, Initial residual = 0.0684466, Final residual = 0.00557762, No Iterations 5
DILUPBiCGStab:  Solving for Uy, Initial residual = 0.360127, Final residual = 0.0221449, No Iterations 5
DILUPBiCGStab:  Solving for Uz, Initial residual = 0.831589, Final residual = 0.0950062, No Iterations 5
linear solve U 855226
[OGL LOG][Proc: 0]global_index_init : 249 mu s
[OGL LOG][Proc: 0]global_index_init : 3 mu s
[OGL LOG][Proc: 0]global_index_init : 5 mu s
[OGL LOG][Proc: 0]global_index_init : 4 mu s
[OGL LOG][Proc: 0]update_host_matrix_data : 16994 mu s
[OGL LOG][Proc: 0]gather_initGuess : 1 mu s
[OGL LOG][Proc: 0]gather_RHS : 23851 mu s
[OGL LOG][Proc: 0]gather_global_matrix : 0 mu s
read from registry
[OGL LOG][Proc: 0]init_precond : 9 mu s
[OGL LOG][Proc: 0]generate_solver : 1 mu s
[OGL LOG][Proc: 0]solve : 261153434 mu s
[OGL LOG][Proc: 0]retrieve_result_from_device : 225489 mu s
ISAIhipGKOGMRES:  Solving for p, Initial residual = 0.938162, Final residual = 0.000179166, No Iterations 10001
linear solve p 261429973
time step continuity errors : sum local = 2.39935e-07, global = 7.94093e-21, cumulative = -3.44748e-21
[OGL LOG][Proc: 0]global_index_init : 260 mu s
[OGL LOG][Proc: 0]global_index_init : 4 mu s
[OGL LOG][Proc: 0]global_index_init : 5 mu s
[OGL LOG][Proc: 0]global_index_init : 4 mu s
[OGL LOG][Proc: 0]update_host_matrix_data : 17097 mu s
[OGL LOG][Proc: 0]gather_initGuess : 1 mu s
[OGL LOG][Proc: 0]gather_RHS : 23940 mu s
[OGL LOG][Proc: 0]gather_global_matrix : 0 mu s
read from registry
[OGL LOG][Proc: 0]init_precond : 9 mu s
[OGL LOG][Proc: 0]generate_solver : 1 mu s
[OGL LOG][Proc: 0]solve : 260995597 mu s
[OGL LOG][Proc: 0]retrieve_result_from_device : 224647 mu s
ISAIhipGKOGMRES:  Solving for p, Initial residual = 0.905019, Final residual = 2.54787e-06, No Iterations 10001
linear solve p 261271454
time step continuity errors : sum local = 3.35756e-09, global = 4.0536e-21, cumulative = 6.06117e-22
ExecutionTime = 1620.11 s  ClockTime = 1599 s

End

Finalising parallel run
================================================================================
hash: dd3ba40cadc8d58646b24abb1cf799df
/*---------------------------------------------------------------------------*\
| =========                 |                                                 |
| \\      /  F ield         | OpenFOAM: The Open Source CFD Toolbox           |
|  \\    /   O peration     | Version:  v2106                                 |
|   \\  /    A nd           | Website:  www.openfoam.com                      |
|    \\/     M anipulation  |                                                 |
\*---------------------------------------------------------------------------*/
Build  : f815a12bba-20210902 OPENFOAM=2106
Arch   : "LSB;label=32;scalar=64"
Exec   : icoFoam -parallel
Date   : Jan 28 2022
Time   : 00:30:21
Host   : nla-gpu2.ianm.kit.edu
PID    : 3704597
I/O    : uncollated
Case   : /home/greole/data/code/ogl_labbook/lidDrivenCavity3D/resolution/Variation_mesh/200/Variation_matrix_solver/CG_ISAI_HIP/Variation_mpiRank/8/base
nProcs : 8
Hosts  :
(
    (nla-gpu2.ianm.kit.edu 8)
)
Pstream initialized with:
    floatTransfer      : 0
    nProcsSimpleSum    : 0
    commsType          : nonBlocking
    polling iterations : 0
trapFpe: Floating point exception trapping enabled (FOAM_SIGFPE).
fileModificationChecking : Monitoring run-time modified files using timeStampMaster (fileModificationSkew 5, maxFileModificationPolls 20)
allowSystemOperations : Allowing user-supplied system call operations

// * * * * * * * * * * * * * * * * * * * * * * * * * * * * * * * * * * * * * //
Create time

Create mesh for time = 0


PISO: Operating solver in PISO mode

Reading transportProperties

Reading field p

Reading field U

Reading/calculating face flux field phi


Starting time loop

Time = 0.0005

Courant Number mean: 0 max: 0
DILUPBiCGStab:  Solving for Ux, Initial residual = 1, Final residual = 0.0216481, No Iterations 5
DILUPBiCGStab:  Solving for Uy:  solution singularity
DILUPBiCGStab:  Solving for Uz:  solution singularity
linear solve U 441525
[OGL LOG][Proc: 0]global_index_init : 32113 mu s
[OGL LOG][Proc: 0]global_index_init : 4 mu s
[OGL LOG][Proc: 0]global_index_init : 4 mu s
[OGL LOG][Proc: 0]global_index_init : 4 mu s
[OGL LOG][Proc: 0]init_host_sparsity_pattern : 18567222 mu s
[OGL LOG][Proc: 0]update_host_matrix_data : 25162 mu s
[OGL LOG][Proc: 0]convert_coo_to_csr : 5432 mu s
[OGL LOG][Proc: 0]gather_initGuess : 24515 mu s
[OGL LOG][Proc: 0]gather_RHS : 20224 mu s
[OGL LOG][Proc: 0]gather_global_matrix : 1 mu s
[OGL LOG][Proc: 0]init_precond : 1156879 mu s
[OGL LOG][Proc: 0]generate_solver : 10 mu s
[OGL LOG][Proc: 0]solve : 4671204 mu s
[OGL LOG][Proc: 0]retrieve_result_from_device : 19125 mu s
ISAIhipGKOCG:  Solving for p, Initial residual = 1, Final residual = 9.89161e-07, No Iterations 1278
linear solve p 25472652
time step continuity errors : sum local = 1.87191e-10, global = -7.7085e-21, cumulative = -7.7085e-21
[OGL LOG][Proc: 0]global_index_init : 25 mu s
[OGL LOG][Proc: 0]global_index_init : 4 mu s
[OGL LOG][Proc: 0]global_index_init : 5 mu s
[OGL LOG][Proc: 0]global_index_init : 3 mu s
[OGL LOG][Proc: 0]update_host_matrix_data : 18173 mu s
[OGL LOG][Proc: 0]gather_initGuess : 12 mu s
[OGL LOG][Proc: 0]gather_RHS : 24392 mu s
[OGL LOG][Proc: 0]gather_global_matrix : 0 mu s
read from registry
[OGL LOG][Proc: 0]init_precond : 26 mu s
[OGL LOG][Proc: 0]generate_solver : 1 mu s
[OGL LOG][Proc: 0]solve : 4272949 mu s
[OGL LOG][Proc: 0]retrieve_result_from_device : 19738 mu s
ISAIhipGKOCG:  Solving for p, Initial residual = 0.81518, Final residual = 8.41e-07, No Iterations 1276
linear solve p 4345787
time step continuity errors : sum local = 1.93317e-10, global = -1.33722e-21, cumulative = -9.04572e-21
ExecutionTime = 37.09 s  ClockTime = 35 s

Time = 0.001

Courant Number mean: 0.0392461 max: 0.865942
DILUPBiCGStab:  Solving for Ux, Initial residual = 0.117616, Final residual = 0.0131468, No Iterations 5
DILUPBiCGStab:  Solving for Uy, Initial residual = 0.506037, Final residual = 0.0494692, No Iterations 5
DILUPBiCGStab:  Solving for Uz, Initial residual = 0.96068, Final residual = 0.101188, No Iterations 5
linear solve U 854027
[OGL LOG][Proc: 0]global_index_init : 184 mu s
[OGL LOG][Proc: 0]global_index_init : 2 mu s
[OGL LOG][Proc: 0]global_index_init : 4 mu s
[OGL LOG][Proc: 0]global_index_init : 4 mu s
[OGL LOG][Proc: 0]update_host_matrix_data : 17167 mu s
[OGL LOG][Proc: 0]gather_initGuess : 1 mu s
[OGL LOG][Proc: 0]gather_RHS : 23527 mu s
[OGL LOG][Proc: 0]gather_global_matrix : 0 mu s
read from registry
[OGL LOG][Proc: 0]init_precond : 9 mu s
[OGL LOG][Proc: 0]generate_solver : 1 mu s
[OGL LOG][Proc: 0]solve : 4276533 mu s
[OGL LOG][Proc: 0]retrieve_result_from_device : 20083 mu s
ISAIhipGKOCG:  Solving for p, Initial residual = 0.897317, Final residual = 8.17965e-07, No Iterations 1276
linear solve p 4347634
time step continuity errors : sum local = 4.17147e-10, global = -2.87087e-21, cumulative = -1.19166e-20
[OGL LOG][Proc: 0]global_index_init : 92 mu s
[OGL LOG][Proc: 0]global_index_init : 3 mu s
[OGL LOG][Proc: 0]global_index_init : 4 mu s
[OGL LOG][Proc: 0]global_index_init : 5 mu s
[OGL LOG][Proc: 0]update_host_matrix_data : 17123 mu s
[OGL LOG][Proc: 0]gather_initGuess : 1 mu s
[OGL LOG][Proc: 0]gather_RHS : 23548 mu s
[OGL LOG][Proc: 0]gather_global_matrix : 0 mu s
read from registry
[OGL LOG][Proc: 0]init_precond : 11 mu s
[OGL LOG][Proc: 0]generate_solver : 2 mu s
[OGL LOG][Proc: 0]solve : 4257579 mu s
[OGL LOG][Proc: 0]retrieve_result_from_device : 19676 mu s
ISAIhipGKOCG:  Solving for p, Initial residual = 0.846842, Final residual = 7.73389e-07, No Iterations 1276
linear solve p 4328041
time step continuity errors : sum local = 4.02269e-10, global = -5.60187e-22, cumulative = -1.24768e-20
ExecutionTime = 48.41 s  ClockTime = 45 s

Time = 0.0015

Courant Number mean: 0.0615403 max: 1.02143
DILUPBiCGStab:  Solving for Ux, Initial residual = 0.0685124, Final residual = 0.00554306, No Iterations 5
DILUPBiCGStab:  Solving for Uy, Initial residual = 0.357897, Final residual = 0.0211478, No Iterations 5
DILUPBiCGStab:  Solving for Uz, Initial residual = 0.820139, Final residual = 0.0702935, No Iterations 5
linear solve U 856860
[OGL LOG][Proc: 0]global_index_init : 180 mu s
[OGL LOG][Proc: 0]global_index_init : 3 mu s
[OGL LOG][Proc: 0]global_index_init : 4 mu s
[OGL LOG][Proc: 0]global_index_init : 4 mu s
[OGL LOG][Proc: 0]update_host_matrix_data : 18302 mu s
[OGL LOG][Proc: 0]gather_initGuess : 1 mu s
[OGL LOG][Proc: 0]gather_RHS : 23658 mu s
[OGL LOG][Proc: 0]gather_global_matrix : 1 mu s
read from registry
[OGL LOG][Proc: 0]init_precond : 12 mu s
[OGL LOG][Proc: 0]generate_solver : 1 mu s
[OGL LOG][Proc: 0]solve : 3403998 mu s
[OGL LOG][Proc: 0]retrieve_result_from_device : 19866 mu s
ISAIhipGKOCG:  Solving for p, Initial residual = 0.937568, Final residual = 1.21054e-07, No Iterations 1021
linear solve p 3476019
time step continuity errors : sum local = 8.03127e-11, global = 7.05338e-22, cumulative = -1.17714e-20
[OGL LOG][Proc: 0]global_index_init : 104 mu s
[OGL LOG][Proc: 0]global_index_init : 4 mu s
[OGL LOG][Proc: 0]global_index_init : 4 mu s
[OGL LOG][Proc: 0]global_index_init : 4 mu s
[OGL LOG][Proc: 0]update_host_matrix_data : 17150 mu s
[OGL LOG][Proc: 0]gather_initGuess : 1 mu s
[OGL LOG][Proc: 0]gather_RHS : 23596 mu s
[OGL LOG][Proc: 0]gather_global_matrix : 1 mu s
read from registry
[OGL LOG][Proc: 0]init_precond : 12 mu s
[OGL LOG][Proc: 0]generate_solver : 1 mu s
[OGL LOG][Proc: 0]solve : 2945781 mu s
[OGL LOG][Proc: 0]retrieve_result_from_device : 19714 mu s
ISAIhipGKOCG:  Solving for p, Initial residual = 0.905008, Final residual = 7.59813e-07, No Iterations 881
linear solve p 3016632
time step continuity errors : sum local = 5.00096e-10, global = 7.06348e-22, cumulative = -1.10651e-20
ExecutionTime = 57.24 s  ClockTime = 53 s

End

Finalising parallel run
================================================================================
[...]
DILUPBiCGStab:  Solving for Uz, Initial residual = 0.960681, Final residual = 0.10119, No Iterations 5
linear solve U 861361
[OGL LOG][Proc: 0]global_index_init : 120 mu s
[OGL LOG][Proc: 0]global_index_init : 3 mu s
[OGL LOG][Proc: 0]global_index_init : 6 mu s
[OGL LOG][Proc: 0]global_index_init : 3 mu s
[OGL LOG][Proc: 0]update_host_matrix_data : 17191 mu s
[OGL LOG][Proc: 0]gather_initGuess : 2 mu s
[OGL LOG][Proc: 0]gather_RHS : 23618 mu s
[OGL LOG][Proc: 0]gather_global_matrix : 0 mu s
read from registry
[OGL LOG][Proc: 0]init_precond : 10 mu s
[OGL LOG][Proc: 0]generate_solver : 1 mu s
[OGL LOG][Proc: 0]solve : 3656552 mu s
[OGL LOG][Proc: 0]retrieve_result_from_device : 21083 mu s
MultigridhipGKOCG:  Solving for p, Initial residual = 0.897317, Final residual = 5.68065e-07, No Iterations 105
linear solve p 3728883
time step continuity errors : sum local = 2.91184e-10, global = 1.81287e-21, cumulative = -4.51297e-21
[OGL LOG][Proc: 0]global_index_init : 119 mu s
[OGL LOG][Proc: 0]global_index_init : 3 mu s
[OGL LOG][Proc: 0]global_index_init : 5 mu s
[OGL LOG][Proc: 0]global_index_init : 3 mu s
[OGL LOG][Proc: 0]update_host_matrix_data : 17173 mu s
[OGL LOG][Proc: 0]gather_initGuess : 1 mu s
[OGL LOG][Proc: 0]gather_RHS : 23715 mu s
[OGL LOG][Proc: 0]gather_global_matrix : 0 mu s
read from registry
[OGL LOG][Proc: 0]init_precond : 10 mu s
[OGL LOG][Proc: 0]generate_solver : 1 mu s
[OGL LOG][Proc: 0]solve : 3714372 mu s
[OGL LOG][Proc: 0]retrieve_result_from_device : 21968 mu s
MultigridhipGKOCG:  Solving for p, Initial residual = 0.846842, Final residual = 5.50853e-07, No Iterations 105
linear solve p 3787770
time step continuity errors : sum local = 2.89405e-10, global = 2.22376e-21, cumulative = -2.28921e-21
ExecutionTime = 45.71 s  ClockTime = 42 s

Time = 0.0015

Courant Number mean: 0.0615403 max: 1.02143
DILUPBiCGStab:  Solving for Ux, Initial residual = 0.0685124, Final residual = 0.00554308, No Iterations 5
DILUPBiCGStab:  Solving for Uy, Initial residual = 0.357897, Final residual = 0.0211478, No Iterations 5
DILUPBiCGStab:  Solving for Uz, Initial residual = 0.82014, Final residual = 0.0702934, No Iterations 5
linear solve U 856767
[OGL LOG][Proc: 0]global_index_init : 173 mu s
[OGL LOG][Proc: 0]global_index_init : 4 mu s
[OGL LOG][Proc: 0]global_index_init : 5 mu s
[OGL LOG][Proc: 0]global_index_init : 3 mu s
[OGL LOG][Proc: 0]update_host_matrix_data : 18374 mu s
[OGL LOG][Proc: 0]gather_initGuess : 1 mu s
[OGL LOG][Proc: 0]gather_RHS : 24315 mu s
[OGL LOG][Proc: 0]gather_global_matrix : 1 mu s
read from registry
[OGL LOG][Proc: 0]init_precond : 11 mu s
[OGL LOG][Proc: 0]generate_solver : 1 mu s
[OGL LOG][Proc: 0]solve : 3741806 mu s
[OGL LOG][Proc: 0]retrieve_result_from_device : 21470 mu s
MultigridhipGKOCG:  Solving for p, Initial residual = 0.937568, Final residual = 2.86447e-07, No Iterations 105
linear solve p 3817451
time step continuity errors : sum local = 1.90386e-10, global = 2.44174e-21, cumulative = 1.52529e-22
[OGL LOG][Proc: 0]global_index_init : 152 mu s
[OGL LOG][Proc: 0]global_index_init : 3 mu s
[OGL LOG][Proc: 0]global_index_init : 6 mu s
[OGL LOG][Proc: 0]global_index_init : 3 mu s
[OGL LOG][Proc: 0]update_host_matrix_data : 17136 mu s
[OGL LOG][Proc: 0]gather_initGuess : 1 mu s
[OGL LOG][Proc: 0]gather_RHS : 23526 mu s
[OGL LOG][Proc: 0]gather_global_matrix : 0 mu s
read from registry
[OGL LOG][Proc: 0]init_precond : 10 mu s
[OGL LOG][Proc: 0]generate_solver : 1 mu s
[OGL LOG][Proc: 0]solve : 3598996 mu s
[OGL LOG][Proc: 0]retrieve_result_from_device : 21598 mu s
MultigridhipGKOCG:  Solving for p, Initial residual = 0.905008, Final residual = 9.7354e-07, No Iterations 101
linear solve p 3671497
time step continuity errors : sum local = 6.41052e-10, global = -2.8803e-21, cumulative = -2.72778e-21
ExecutionTime = 56.44 s  ClockTime = 51 s

End

Finalising parallel run
================================================================================
hash: e14b2916713c88446348bb640cbc4ba5
/*---------------------------------------------------------------------------*\
| =========                 |                                                 |
| \\      /  F ield         | OpenFOAM: The Open Source CFD Toolbox           |
|  \\    /   O peration     | Version:  v2106                                 |
|   \\  /    A nd           | Website:  www.openfoam.com                      |
|    \\/     M anipulation  |                                                 |
\*---------------------------------------------------------------------------*/
Build  : f815a12bba-20210902 OPENFOAM=2106
Arch   : "LSB;label=32;scalar=64"
Exec   : icoFoam -parallel
Date   : Jan 28 2022
Time   : 20:04:05
Host   : nla-gpu2.ianm.kit.edu
PID    : 172812
I/O    : uncollated
Case   : /home/greole/data/code/ogl_labbook/lidDrivenCavity3D/resolution/Variation_mesh/100/Variation_matrix_solver/BiCGStab_Multigrid_HIP/Variation_mpiRank/8/base
nProcs : 8
Hosts  :
(
    (nla-gpu2.ianm.kit.edu 8)
)
Pstream initialized with:
    floatTransfer      : 0
    nProcsSimpleSum    : 0
    commsType          : nonBlocking
    polling iterations : 0
trapFpe: Floating point exception trapping enabled (FOAM_SIGFPE).
fileModificationChecking : Monitoring run-time modified files using timeStampMaster (fileModificationSkew 5, maxFileModificationPolls 20)
allowSystemOperations : Allowing user-supplied system call operations

// * * * * * * * * * * * * * * * * * * * * * * * * * * * * * * * * * * * * * //
Create time

Create mesh for time = 0


PISO: Operating solver in PISO mode

Reading transportProperties

Reading field p

Reading field U

Reading/calculating face flux field phi


Starting time loop

Time = 0.001

Courant Number mean: 0 max: 0
DILUPBiCGStab:  Solving for Ux, Initial residual = 1, Final residual = 0.00976191, No Iterations 5
DILUPBiCGStab:  Solving for Uy:  solution singularity
DILUPBiCGStab:  Solving for Uz:  solution singularity
linear solve U 56751
[OGL LOG][Proc: 0]global_index_init : 28105 mu s
[OGL LOG][Proc: 0]global_index_init : 4 mu s
[OGL LOG][Proc: 0]global_index_init : 4 mu s
[OGL LOG][Proc: 0]global_index_init : 4 mu s
[OGL LOG][Proc: 0]init_host_sparsity_pattern : 568391 mu s
[OGL LOG][Proc: 0]update_host_matrix_data : 3453 mu s
[OGL LOG][Proc: 0]convert_coo_to_csr : 3911 mu s
[OGL LOG][Proc: 0]gather_initGuess : 3661 mu s
[OGL LOG][Proc: 0]gather_RHS : 2823 mu s
[OGL LOG][Proc: 0]gather_global_matrix : 0 mu s
[OGL LOG][Proc: 0]init_precond : 133547 mu s
[OGL LOG][Proc: 0]generate_solver : 5 mu s
[OGL LOG][Proc: 0]solve : 194385723 mu s
[OGL LOG][Proc: 0]retrieve_result_from_device : 5039 mu s
MultigridhipGKOBiCGStab:  Solving for p, Initial residual = 1, Final residual = 6.15661e-06, No Iterations 10000
linear solve p 195782785
time step continuity errors : sum local = 4.41885e-09, global = 5.74715e-21, cumulative = 5.74715e-21
[OGL LOG][Proc: 0]global_index_init : 179 mu s
[OGL LOG][Proc: 0]global_index_init : 3 mu s
[OGL LOG][Proc: 0]global_index_init : 4 mu s
[OGL LOG][Proc: 0]global_index_init : 2 mu s
[OGL LOG][Proc: 0]update_host_matrix_data : 2678 mu s
[OGL LOG][Proc: 0]gather_initGuess : 7 mu s
[OGL LOG][Proc: 0]gather_RHS : 5001 mu s
[OGL LOG][Proc: 0]gather_global_matrix : 0 mu s
read from registry
[OGL LOG][Proc: 0]init_precond : 20 mu s
[OGL LOG][Proc: 0]generate_solver : 1 mu s
[OGL LOG][Proc: 0]solve : 189951679 mu s
[OGL LOG][Proc: 0]retrieve_result_from_device : 5981 mu s
MultigridhipGKOBiCGStab:  Solving for p, Initial residual = 0.77738, Final residual = 0.000301881, No Iterations 10000
linear solve p 189967713
time step continuity errors : sum local = 4.40261e-07, global = -6.24687e-21, cumulative = -4.9972e-22
ExecutionTime = 646.02 s  ClockTime = 386 s

Time = 0.002

Courant Number mean: 0.0555323 max: 0.807218
DILUPBiCGStab:  Solving for Ux, Initial residual = 0.138231, Final residual = 0.00484181, No Iterations 5
DILUPBiCGStab:  Solving for Uy, Initial residual = 0.431552, Final residual = 0.0127496, No Iterations 5
DILUPBiCGStab:  Solving for Uz, Initial residual = 0.960024, Final residual = 0.0292232, No Iterations 5
linear solve U 106554
[OGL LOG][Proc: 0]global_index_init : 62 mu s
[OGL LOG][Proc: 0]global_index_init : 74 mu s
[OGL LOG][Proc: 0]global_index_init : 4 mu s
[OGL LOG][Proc: 0]global_index_init : 2 mu s
[OGL LOG][Proc: 0]update_host_matrix_data : 2739 mu s
[OGL LOG][Proc: 0]gather_initGuess : 1 mu s
[OGL LOG][Proc: 0]gather_RHS : 4225 mu s
[OGL LOG][Proc: 0]gather_global_matrix : 0 mu s
read from registry
[OGL LOG][Proc: 0]init_precond : 8 mu s
[OGL LOG][Proc: 0]generate_solver : 4 mu s
[OGL LOG][Proc: 0]solve : 189997834 mu s
[OGL LOG][Proc: 0]retrieve_result_from_device : 7040 mu s
MultigridhipGKOBiCGStab:  Solving for p, Initial residual = 0.809622, Final residual = 0.00633824, No Iterations 10000
linear solve p 190014205
time step continuity errors : sum local = 7.79619e-06, global = -6.35275e-21, cumulative = -6.85247e-21
[OGL LOG][Proc: 0]global_index_init : 61 mu s
[OGL LOG][Proc: 0]global_index_init : 3 mu s
[OGL LOG][Proc: 0]global_index_init : 4 mu s
[OGL LOG][Proc: 0]global_index_init : 2 mu s
[OGL LOG][Proc: 0]update_host_matrix_data : 2886 mu s
[OGL LOG][Proc: 0]gather_initGuess : 2 mu s
[OGL LOG][Proc: 0]gather_RHS : 4060 mu s
[OGL LOG][Proc: 0]gather_global_matrix : 0 mu s
read from registry
[OGL LOG][Proc: 0]init_precond : 14 mu s
[OGL LOG][Proc: 0]generate_solver : 1 mu s
[OGL LOG][Proc: 0]solve : 190121767 mu s
[OGL LOG][Proc: 0]retrieve_result_from_device : 21860 mu s
MultigridhipGKOBiCGStab:  Solving for p, Initial residual = 0.74595, Final residual = 0.000582707, No Iterations 10000
linear solve p 190153237
time step continuity errors : sum local = 1.12587e-06, global = 7.94093e-22, cumulative = -6.05837e-21
ExecutionTime = 1281.87 s  ClockTime = 767 s

Time = 0.003

Courant Number mean: 0.0847093 max: 0.943749
DILUPBiCGStab:  Solving for Ux, Initial residual = 0.0775085, Final residual = 0.00260007, No Iterations 5
DILUPBiCGStab:  Solving for Uy, Initial residual = 0.231567, Final residual = 0.00435728, No Iterations 5
DILUPBiCGStab:  Solving for Uz, Initial residual = 0.77669, Final residual = 0.0254465, No Iterations 5
linear solve U 103486
[OGL LOG][Proc: 0]global_index_init : 58 mu s
[OGL LOG][Proc: 0]global_index_init : 3 mu s
[OGL LOG][Proc: 0]global_index_init : 6 mu s
[OGL LOG][Proc: 0]global_index_init : 3 mu s
[OGL LOG][Proc: 0]update_host_matrix_data : 2752 mu s
[OGL LOG][Proc: 0]gather_initGuess : 1 mu s
[OGL LOG][Proc: 0]gather_RHS : 3502 mu s
[OGL LOG][Proc: 0]gather_global_matrix : 0 mu s
read from registry
[OGL LOG][Proc: 0]init_precond : 8 mu s
[OGL LOG][Proc: 0]generate_solver : 1 mu s
[OGL LOG][Proc: 0]solve : 190669822 mu s
[OGL LOG][Proc: 0]retrieve_result_from_device : 12543 mu s
MultigridhipGKOBiCGStab:  Solving for p, Initial residual = 0.874414, Final residual = 0.000481246, No Iterations 10000
linear solve p 190690962
time step continuity errors : sum local = 1.11526e-06, global = 2.21817e-20, cumulative = 1.61233e-20
[OGL LOG][Proc: 0]global_index_init : 51 mu s
[OGL LOG][Proc: 0]global_index_init : 2 mu s
[OGL LOG][Proc: 0]global_index_init : 3 mu s
[OGL LOG][Proc: 0]global_index_init : 2 mu s
[OGL LOG][Proc: 0]update_host_matrix_data : 2786 mu s
[OGL LOG][Proc: 0]gather_initGuess : 2 mu s
[OGL LOG][Proc: 0]gather_RHS : 3933 mu s
[OGL LOG][Proc: 0]gather_global_matrix : 0 mu s
read from registry
[OGL LOG][Proc: 0]init_precond : 8 mu s
[OGL LOG][Proc: 0]generate_solver : 2 mu s
[OGL LOG][Proc: 0]solve : 190327469 mu s
[OGL LOG][Proc: 0]retrieve_result_from_device : 2469 mu s
MultigridhipGKOBiCGStab:  Solving for p, Initial residual = 0.846958, Final residual = 0.675647, No Iterations 10000
linear solve p 190338916
time step continuity errors : sum local = 0.00165453, global = 1.28478e-17, cumulative = 1.28639e-17
ExecutionTime = 1922.2 s  ClockTime = 1148 s

End

Finalising parallel run
================================================================================
hash: ab512efb71777683a98d8c0d72574739
/*---------------------------------------------------------------------------*\
| =========                 |                                                 |
| \\      /  F ield         | OpenFOAM: The Open Source CFD Toolbox           |
|  \\    /   O peration     | Version:  v2106                                 |
|   \\  /    A nd           | Website:  www.openfoam.com                      |
|    \\/     M anipulation  |                                                 |
\*---------------------------------------------------------------------------*/
Build  : f815a12bba-20210902 OPENFOAM=2106
Arch   : "LSB;label=32;scalar=64"
Exec   : icoFoam -parallel
Date   : Jan 28 2022
Time   : 20:23:13
Host   : nla-gpu2.ianm.kit.edu
PID    : 183399
I/O    : uncollated
Case   : /home/greole/data/code/ogl_labbook/lidDrivenCavity3D/resolution/Variation_mesh/100/Variation_matrix_solver/CG_Multigrid_HIP/Variation_mpiRank/8/base
nProcs : 8
Hosts  :
(
    (nla-gpu2.ianm.kit.edu 8)
)
Pstream initialized with:
    floatTransfer      : 0
    nProcsSimpleSum    : 0
    commsType          : nonBlocking
    polling iterations : 0
trapFpe: Floating point exception trapping enabled (FOAM_SIGFPE).
fileModificationChecking : Monitoring run-time modified files using timeStampMaster (fileModificationSkew 5, maxFileModificationPolls 20)
allowSystemOperations : Allowing user-supplied system call operations

// * * * * * * * * * * * * * * * * * * * * * * * * * * * * * * * * * * * * * //
Create time

Create mesh for time = 0


PISO: Operating solver in PISO mode

Reading transportProperties

Reading field p

Reading field U

Reading/calculating face flux field phi


Starting time loop

Time = 0.001

Courant Number mean: 0 max: 0
DILUPBiCGStab:  Solving for Ux, Initial residual = 1, Final residual = 0.00976191, No Iterations 5
DILUPBiCGStab:  Solving for Uy:  solution singularity
DILUPBiCGStab:  Solving for Uz:  solution singularity
linear solve U 56644
[OGL LOG][Proc: 0]global_index_init : 33890 mu s
[OGL LOG][Proc: 0]global_index_init : 5 mu s
[OGL LOG][Proc: 0]global_index_init : 4 mu s
[OGL LOG][Proc: 0]global_index_init : 2 mu s
[OGL LOG][Proc: 0]init_host_sparsity_pattern : 566862 mu s
[OGL LOG][Proc: 0]update_host_matrix_data : 3516 mu s
[OGL LOG][Proc: 0]convert_coo_to_csr : 3937 mu s
[OGL LOG][Proc: 0]gather_initGuess : 3958 mu s
[OGL LOG][Proc: 0]gather_RHS : 2996 mu s
[OGL LOG][Proc: 0]gather_global_matrix : 0 mu s
[OGL LOG][Proc: 0]init_precond : 128332 mu s
[OGL LOG][Proc: 0]generate_solver : 2 mu s
[OGL LOG][Proc: 0]solve : 1085904 mu s
[OGL LOG][Proc: 0]retrieve_result_from_device : 5182 mu s
MultigridhipGKOCG:  Solving for p, Initial residual = 1, Final residual = 8.46894e-07, No Iterations 115
linear solve p 2476406
time step continuity errors : sum local = 4.92393e-10, global = 1.58169e-20, cumulative = 1.58169e-20
[OGL LOG][Proc: 0]global_index_init : 61 mu s
[OGL LOG][Proc: 0]global_index_init : 2 mu s
[OGL LOG][Proc: 0]global_index_init : 5 mu s
[OGL LOG][Proc: 0]global_index_init : 3 mu s
[OGL LOG][Proc: 0]update_host_matrix_data : 2729 mu s
[OGL LOG][Proc: 0]gather_initGuess : 6 mu s
[OGL LOG][Proc: 0]gather_RHS : 4774 mu s
[OGL LOG][Proc: 0]gather_global_matrix : 0 mu s
read from registry
[OGL LOG][Proc: 0]init_precond : 20 mu s
[OGL LOG][Proc: 0]generate_solver : 1 mu s
[OGL LOG][Proc: 0]solve : 1044108 mu s
[OGL LOG][Proc: 0]retrieve_result_from_device : 4550 mu s
MultigridhipGKOCG:  Solving for p, Initial residual = 0.777378, Final residual = 4.36769e-07, No Iterations 117
linear solve p 1058692
time step continuity errors : sum local = 3.27635e-10, global = 8.79064e-21, cumulative = 2.46076e-20
ExecutionTime = 5.88 s  ClockTime = 5 s

Time = 0.002

Courant Number mean: 0.0555224 max: 0.807219
DILUPBiCGStab:  Solving for Ux, Initial residual = 0.137481, Final residual = 0.00480444, No Iterations 5
DILUPBiCGStab:  Solving for Uy, Initial residual = 0.431367, Final residual = 0.0127824, No Iterations 5
DILUPBiCGStab:  Solving for Uz, Initial residual = 0.97357, Final residual = 0.0274117, No Iterations 5
linear solve U 103007
[OGL LOG][Proc: 0]global_index_init : 55 mu s
[OGL LOG][Proc: 0]global_index_init : 3 mu s
[OGL LOG][Proc: 0]global_index_init : 5 mu s
[OGL LOG][Proc: 0]global_index_init : 4 mu s
[OGL LOG][Proc: 0]update_host_matrix_data : 2739 mu s
[OGL LOG][Proc: 0]gather_initGuess : 1 mu s
[OGL LOG][Proc: 0]gather_RHS : 4330 mu s
[OGL LOG][Proc: 0]gather_global_matrix : 0 mu s
read from registry
[OGL LOG][Proc: 0]init_precond : 9 mu s
[OGL LOG][Proc: 0]generate_solver : 1 mu s
[OGL LOG][Proc: 0]solve : 858342 mu s
[OGL LOG][Proc: 0]retrieve_result_from_device : 3131 mu s
MultigridhipGKOCG:  Solving for p, Initial residual = 0.808994, Final residual = 8.28622e-07, No Iterations 97
linear solve p 870677
time step continuity errors : sum local = 9.12167e-10, global = -4.58508e-21, cumulative = 2.00225e-20
[OGL LOG][Proc: 0]global_index_init : 43 mu s
[OGL LOG][Proc: 0]global_index_init : 3 mu s
[OGL LOG][Proc: 0]global_index_init : 3 mu s
[OGL LOG][Proc: 0]global_index_init : 2 mu s
[OGL LOG][Proc: 0]update_host_matrix_data : 1690 mu s
[OGL LOG][Proc: 0]gather_initGuess : 1 mu s
[OGL LOG][Proc: 0]gather_RHS : 4312 mu s
[OGL LOG][Proc: 0]gather_global_matrix : 0 mu s
read from registry
[OGL LOG][Proc: 0]init_precond : 7 mu s
[OGL LOG][Proc: 0]generate_solver : 1 mu s
[OGL LOG][Proc: 0]solve : 775608 mu s
[OGL LOG][Proc: 0]retrieve_result_from_device : 3082 mu s
MultigridhipGKOCG:  Solving for p, Initial residual = 0.74964, Final residual = 6.89031e-07, No Iterations 88
linear solve p 786650
time step continuity errors : sum local = 7.91564e-10, global = -7.90734e-21, cumulative = 1.21152e-20
ExecutionTime = 8.86 s  ClockTime = 6 s

Time = 0.003

Courant Number mean: 0.0846038 max: 0.943672
DILUPBiCGStab:  Solving for Ux, Initial residual = 0.0646793, Final residual = 0.00170434, No Iterations 5
DILUPBiCGStab:  Solving for Uy, Initial residual = 0.226339, Final residual = 0.00427104, No Iterations 5
DILUPBiCGStab:  Solving for Uz, Initial residual = 0.76569, Final residual = 0.0189345, No Iterations 5
linear solve U 102769
[OGL LOG][Proc: 0]global_index_init : 43 mu s
[OGL LOG][Proc: 0]global_index_init : 2 mu s
[OGL LOG][Proc: 0]global_index_init : 6 mu s
[OGL LOG][Proc: 0]global_index_init : 3 mu s
[OGL LOG][Proc: 0]update_host_matrix_data : 1949 mu s
[OGL LOG][Proc: 0]gather_initGuess : 1 mu s
[OGL LOG][Proc: 0]gather_RHS : 3790 mu s
[OGL LOG][Proc: 0]gather_global_matrix : 0 mu s
read from registry
[OGL LOG][Proc: 0]init_precond : 8 mu s
[OGL LOG][Proc: 0]generate_solver : 1 mu s
[OGL LOG][Proc: 0]solve : 763162 mu s
[OGL LOG][Proc: 0]retrieve_result_from_device : 3622 mu s
MultigridhipGKOCG:  Solving for p, Initial residual = 0.837716, Final residual = 2.68479e-07, No Iterations 85
linear solve p 774768
time step continuity errors : sum local = 2.65804e-10, global = 1.22457e-20, cumulative = 2.43609e-20
[OGL LOG][Proc: 0]global_index_init : 59 mu s
[OGL LOG][Proc: 0]global_index_init : 3 mu s
[OGL LOG][Proc: 0]global_index_init : 5 mu s
[OGL LOG][Proc: 0]global_index_init : 2 mu s
[OGL LOG][Proc: 0]update_host_matrix_data : 2861 mu s
[OGL LOG][Proc: 0]gather_initGuess : 1 mu s
[OGL LOG][Proc: 0]gather_RHS : 3995 mu s
[OGL LOG][Proc: 0]gather_global_matrix : 0 mu s
read from registry
[OGL LOG][Proc: 0]init_precond : 8 mu s
[OGL LOG][Proc: 0]generate_solver : 1 mu s
[OGL LOG][Proc: 0]solve : 752193 mu s
[OGL LOG][Proc: 0]retrieve_result_from_device : 2935 mu s
MultigridhipGKOCG:  Solving for p, Initial residual = 0.805107, Final residual = 2.51683e-07, No Iterations 85
linear solve p 764103
time step continuity errors : sum local = 2.43102e-10, global = -1.57112e-20, cumulative = 8.64973e-21
ExecutionTime = 11.61 s  ClockTime = 8 s

End

Finalising parallel run
================================================================================
