hash: 23157424c120ba02567efef23ba5ed8b
/*---------------------------------------------------------------------------*\
| =========                 |                                                 |
| \\      /  F ield         | OpenFOAM: The Open Source CFD Toolbox           |
|  \\    /   O peration     | Version:  2112                                  |
|   \\  /    A nd           | Website:  www.openfoam.com                      |
|    \\/     M anipulation  |                                                 |
\*---------------------------------------------------------------------------*/
Build  : d44c8318f0-20220111 OPENFOAM=2112 version=v2112
Arch   : "LSB;label=32;scalar=64"
Exec   : icoFoam -parallel
Date   : Jan 29 2022
Time   : 22:05:03
Host   : hkn0017.localdomain
PID    : 1369680
I/O    : uncollated
Case   : /hkfs/home/project/hk-project-test-fine/eq4036/data/code/ogl_labbook/lidDrivenCavity/resolution/Variation_mesh/100/Variation_matrix_solver/BiCGStab_NoPrecond_DefaultOF/Variation_mpiRank/72/base
nProcs : 72
Hosts  :
(
    (hkn0017.localdomain 72)
)
Pstream initialized with:
    floatTransfer      : 0
    nProcsSimpleSum    : 0
    commsType          : nonBlocking
    polling iterations : 0
trapFpe: Floating point exception trapping enabled (FOAM_SIGFPE).
fileModificationChecking : Monitoring run-time modified files using timeStampMaster (fileModificationSkew 5, maxFileModificationPolls 20)
allowSystemOperations : Allowing user-supplied system call operations

// * * * * * * * * * * * * * * * * * * * * * * * * * * * * * * * * * * * * * //
Create time

Create mesh for time = 0


PISO: Operating solver in PISO mode

Reading transportProperties

Reading field p

Reading field U

Reading/calculating face flux field phi


Starting time loop

Time = 0.001

Courant Number mean: 0 max: 0
DILUPBiCGStab:  Solving for Ux, Initial residual = 1, Final residual = 0.0122484, No Iterations 5
DILUPBiCGStab:  Solving for Uy:  solution singularity
DILUPBiCGStab:  Solving for Uz:  solution singularity
linear solve U 11961
nonePBiCGStab:  Solving for p, Initial residual = 1, Final residual = 6.02437e-07, No Iterations 649
linear solve p 319593
time step continuity errors : sum local = 6.3865e-10, global = -6.37632e-21, cumulative = -6.37632e-21
nonePBiCGStab:  Solving for p, Initial residual = 0.772333, Final residual = 6.83665e-07, No Iterations 649
linear solve p 340568
time step continuity errors : sum local = 1.03035e-09, global = -4.75706e-21, cumulative = -1.11334e-20
ExecutionTime = 0.83 s  ClockTime = 1 s

Time = 0.002

Courant Number mean: 0.055058 max: 0.807874
DILUPBiCGStab:  Solving for Ux, Initial residual = 0.137029, Final residual = 0.00657446, No Iterations 5
DILUPBiCGStab:  Solving for Uy, Initial residual = 0.431781, Final residual = 0.018517, No Iterations 5
DILUPBiCGStab:  Solving for Uz, Initial residual = 0.940931, Final residual = 0.0388596, No Iterations 5
linear solve U 17158
nonePBiCGStab:  Solving for p, Initial residual = 0.820003, Final residual = 9.4377e-07, No Iterations 635
linear solve p 302405
time step continuity errors : sum local = 2.12925e-09, global = -5.93547e-20, cumulative = -7.0488e-20
nonePBiCGStab:  Solving for p, Initial residual = 0.755769, Final residual = 2.27771e-07, No Iterations 657
linear solve p 312086
time step continuity errors : sum local = 3.89636e-10, global = -2.25558e-20, cumulative = -9.30439e-20
ExecutionTime = 1.48 s  ClockTime = 2 s

Time = 0.003

Courant Number mean: 0.083966 max: 0.944023
DILUPBiCGStab:  Solving for Ux, Initial residual = 0.0643552, Final residual = 0.00235512, No Iterations 5
DILUPBiCGStab:  Solving for Uy, Initial residual = 0.225565, Final residual = 0.0061974, No Iterations 5
DILUPBiCGStab:  Solving for Uz, Initial residual = 0.722669, Final residual = 0.0266315, No Iterations 5
linear solve U 17334
nonePBiCGStab:  Solving for p, Initial residual = 0.842368, Final residual = 8.36354e-07, No Iterations 647
linear solve p 309459
time step continuity errors : sum local = 1.54647e-09, global = -2.52213e-20, cumulative = -1.18265e-19
nonePBiCGStab:  Solving for p, Initial residual = 0.80631, Final residual = 7.75999e-07, No Iterations 660
linear solve p 318957
time step continuity errors : sum local = 1.37753e-09, global = -2.69037e-20, cumulative = -1.45169e-19
ExecutionTime = 2.14 s  ClockTime = 2 s

End

Finalising parallel run
================================================================================
hash: b47a00815c122823e2eae32dee00f84c
/*---------------------------------------------------------------------------*\
| =========                 |                                                 |
| \\      /  F ield         | OpenFOAM: The Open Source CFD Toolbox           |
|  \\    /   O peration     | Version:  2112                                  |
|   \\  /    A nd           | Website:  www.openfoam.com                      |
|    \\/     M anipulation  |                                                 |
\*---------------------------------------------------------------------------*/
Build  : d44c8318f0-20220111 OPENFOAM=2112 version=v2112
Arch   : "LSB;label=32;scalar=64"
Exec   : icoFoam -parallel
Date   : Jan 29 2022
Time   : 22:05:09
Host   : hkn0017.localdomain
PID    : 1371276
I/O    : uncollated
Case   : /hkfs/home/project/hk-project-test-fine/eq4036/data/code/ogl_labbook/lidDrivenCavity/resolution/Variation_mesh/100/Variation_matrix_solver/CG_NoPrecond_DefaultOF/Variation_mpiRank/72/base
nProcs : 72
Hosts  :
(
    (hkn0017.localdomain 72)
)
Pstream initialized with:
    floatTransfer      : 0
    nProcsSimpleSum    : 0
    commsType          : nonBlocking
    polling iterations : 0
trapFpe: Floating point exception trapping enabled (FOAM_SIGFPE).
fileModificationChecking : Monitoring run-time modified files using timeStampMaster (fileModificationSkew 5, maxFileModificationPolls 20)
allowSystemOperations : Allowing user-supplied system call operations

// * * * * * * * * * * * * * * * * * * * * * * * * * * * * * * * * * * * * * //
Create time

Create mesh for time = 0


PISO: Operating solver in PISO mode

Reading transportProperties

Reading field p

Reading field U

Reading/calculating face flux field phi


Starting time loop

Time = 0.001

Courant Number mean: 0 max: 0
DILUPBiCGStab:  Solving for Ux, Initial residual = 1, Final residual = 0.0122484, No Iterations 5
DILUPBiCGStab:  Solving for Uy:  solution singularity
DILUPBiCGStab:  Solving for Uz:  solution singularity
linear solve U 12196
nonePCG:  Solving for p, Initial residual = 1, Final residual = 9.76172e-07, No Iterations 860
linear solve p 174138
time step continuity errors : sum local = 5.92437e-10, global = -1.19921e-20, cumulative = -1.19921e-20
nonePCG:  Solving for p, Initial residual = 0.772332, Final residual = 9.54465e-07, No Iterations 855
linear solve p 178267
time step continuity errors : sum local = 7.32679e-10, global = -2.35265e-21, cumulative = -1.43447e-20
ExecutionTime = 0.54 s  ClockTime = 1 s

Time = 0.002

Courant Number mean: 0.0550579 max: 0.807874
DILUPBiCGStab:  Solving for Ux, Initial residual = 0.137027, Final residual = 0.00657434, No Iterations 5
DILUPBiCGStab:  Solving for Uy, Initial residual = 0.431779, Final residual = 0.0185169, No Iterations 5
DILUPBiCGStab:  Solving for Uz, Initial residual = 0.940929, Final residual = 0.0388572, No Iterations 5
linear solve U 33457
nonePCG:  Solving for p, Initial residual = 0.820007, Final residual = 9.54341e-07, No Iterations 835
linear solve p 172849
time step continuity errors : sum local = 1.08711e-09, global = -4.07352e-21, cumulative = -1.84182e-20
nonePCG:  Solving for p, Initial residual = 0.755777, Final residual = 9.40344e-07, No Iterations 832
linear solve p 176138
time step continuity errors : sum local = 1.09913e-09, global = -1.80973e-20, cumulative = -3.65155e-20
ExecutionTime = 0.95 s  ClockTime = 1 s

Time = 0.003

Courant Number mean: 0.0839658 max: 0.944024
DILUPBiCGStab:  Solving for Ux, Initial residual = 0.0643558, Final residual = 0.00235535, No Iterations 5
DILUPBiCGStab:  Solving for Uy, Initial residual = 0.225566, Final residual = 0.00619855, No Iterations 5
DILUPBiCGStab:  Solving for Uz, Initial residual = 0.722661, Final residual = 0.0266287, No Iterations 5
linear solve U 16560
nonePCG:  Solving for p, Initial residual = 0.842366, Final residual = 9.68631e-07, No Iterations 845
linear solve p 170349
time step continuity errors : sum local = 9.88962e-10, global = -2.79849e-20, cumulative = -6.45004e-20
nonePCG:  Solving for p, Initial residual = 0.806321, Final residual = 9.95007e-07, No Iterations 843
linear solve p 169420
time step continuity errors : sum local = 9.92951e-10, global = -2.37618e-20, cumulative = -8.82622e-20
ExecutionTime = 1.32 s  ClockTime = 1 s

End

Finalising parallel run
================================================================================
hash: aa8f22d91be2b6b2ac4701f587ac11ad
/*---------------------------------------------------------------------------*\
| =========                 |                                                 |
| \\      /  F ield         | OpenFOAM: The Open Source CFD Toolbox           |
|  \\    /   O peration     | Version:  2112                                  |
|   \\  /    A nd           | Website:  www.openfoam.com                      |
|    \\/     M anipulation  |                                                 |
\*---------------------------------------------------------------------------*/
Build  : d44c8318f0-20220111 OPENFOAM=2112 version=v2112
Arch   : "LSB;label=32;scalar=64"
Exec   : icoFoam -parallel
Date   : Jan 29 2022
Time   : 22:10:25
Host   : hkn1141.localdomain
PID    : 3692980
I/O    : uncollated
Case   : /hkfs/home/project/hk-project-test-fine/eq4036/data/code/ogl_labbook/lidDrivenCavity/resolution/Variation_mesh/200/Variation_matrix_solver/BiCGStab_NoPrecond_DefaultOF/Variation_mpiRank/72/base
nProcs : 72
Hosts  :
(
    (hkn1141.localdomain 72)
)
Pstream initialized with:
    floatTransfer      : 0
    nProcsSimpleSum    : 0
    commsType          : nonBlocking
    polling iterations : 0
trapFpe: Floating point exception trapping enabled (FOAM_SIGFPE).
fileModificationChecking : Monitoring run-time modified files using timeStampMaster (fileModificationSkew 5, maxFileModificationPolls 20)
allowSystemOperations : Allowing user-supplied system call operations

// * * * * * * * * * * * * * * * * * * * * * * * * * * * * * * * * * * * * * //
Create time

Create mesh for time = 0


PISO: Operating solver in PISO mode

Reading transportProperties

Reading field p

Reading field U

Reading/calculating face flux field phi


Starting time loop

Time = 0.0005

Courant Number mean: 0 max: 0
DILUPBiCGStab:  Solving for Ux, Initial residual = 1, Final residual = 0.023463, No Iterations 5
DILUPBiCGStab:  Solving for Uy:  solution singularity
DILUPBiCGStab:  Solving for Uz:  solution singularity
linear solve U 176086
nonePBiCGStab:  Solving for p, Initial residual = 1, Final residual = 9.73913e-07, No Iterations 1463
linear solve p 15302002
time step continuity errors : sum local = 3.58319e-10, global = 3.82234e-21, cumulative = 3.82234e-21
nonePBiCGStab:  Solving for p, Initial residual = 0.822225, Final residual = 4.73119e-07, No Iterations 1375
linear solve p 14046089
time step continuity errors : sum local = 1.76003e-10, global = 7.95366e-22, cumulative = 4.6177e-21
ExecutionTime = 30.29 s  ClockTime = 31 s

Time = 0.001

Courant Number mean: 0.0388251 max: 0.866522
DILUPBiCGStab:  Solving for Ux, Initial residual = 0.117671, Final residual = 0.0146541, No Iterations 5
DILUPBiCGStab:  Solving for Uy, Initial residual = 0.506609, Final residual = 0.0576251, No Iterations 5
DILUPBiCGStab:  Solving for Uz, Initial residual = 0.913321, Final residual = 0.109803, No Iterations 5
linear solve U 349766
nonePBiCGStab:  Solving for p, Initial residual = 0.908312, Final residual = 8.22149e-07, No Iterations 1270
linear solve p 13051347
time step continuity errors : sum local = 8.45205e-10, global = -4.32241e-21, cumulative = 2.95297e-22
nonePBiCGStab:  Solving for p, Initial residual = 0.85621, Final residual = 9.32026e-07, No Iterations 1238
linear solve p 12737756
time step continuity errors : sum local = 1.08864e-09, global = -3.57435e-21, cumulative = -3.27905e-21
ExecutionTime = 56.58 s  ClockTime = 57 s

Time = 0.0015

Courant Number mean: 0.0609306 max: 1.02317
DILUPBiCGStab:  Solving for Ux, Initial residual = 0.0680772, Final residual = 0.00639584, No Iterations 5
DILUPBiCGStab:  Solving for Uy, Initial residual = 0.356003, Final residual = 0.024183, No Iterations 5
DILUPBiCGStab:  Solving for Uz, Initial residual = 0.764873, Final residual = 0.0749258, No Iterations 5
linear solve U 337861
nonePBiCGStab:  Solving for p, Initial residual = 0.940391, Final residual = 9.83728e-07, No Iterations 1379
linear solve p 14005338
time step continuity errors : sum local = 1.38034e-09, global = -5.11828e-21, cumulative = -8.39734e-21
nonePBiCGStab:  Solving for p, Initial residual = 0.905527, Final residual = 8.32717e-07, No Iterations 794
linear solve p 8120280
time step continuity errors : sum local = 6.25091e-10, global = -5.86929e-21, cumulative = -1.42666e-20
ExecutionTime = 79.21 s  ClockTime = 80 s

End

Finalising parallel run
================================================================================
hash: f49f54c0c0f2459ffbf94dacc582fc56
/*---------------------------------------------------------------------------*\
| =========                 |                                                 |
| \\      /  F ield         | OpenFOAM: The Open Source CFD Toolbox           |
|  \\    /   O peration     | Version:  2112                                  |
|   \\  /    A nd           | Website:  www.openfoam.com                      |
|    \\/     M anipulation  |                                                 |
\*---------------------------------------------------------------------------*/
Build  : d44c8318f0-20220111 OPENFOAM=2112 version=v2112
Arch   : "LSB;label=32;scalar=64"
Exec   : icoFoam -parallel
Date   : Jan 29 2022
Time   : 22:11:49
Host   : hkn1141.localdomain
PID    : 3694639
I/O    : uncollated
Case   : /hkfs/home/project/hk-project-test-fine/eq4036/data/code/ogl_labbook/lidDrivenCavity/resolution/Variation_mesh/200/Variation_matrix_solver/CG_NoPrecond_DefaultOF/Variation_mpiRank/72/base
nProcs : 72
Hosts  :
(
    (hkn1141.localdomain 72)
)
Pstream initialized with:
    floatTransfer      : 0
    nProcsSimpleSum    : 0
    commsType          : nonBlocking
    polling iterations : 0
trapFpe: Floating point exception trapping enabled (FOAM_SIGFPE).
fileModificationChecking : Monitoring run-time modified files using timeStampMaster (fileModificationSkew 5, maxFileModificationPolls 20)
allowSystemOperations : Allowing user-supplied system call operations

// * * * * * * * * * * * * * * * * * * * * * * * * * * * * * * * * * * * * * //
Create time

Create mesh for time = 0


PISO: Operating solver in PISO mode

Reading transportProperties

Reading field p

Reading field U

Reading/calculating face flux field phi


Starting time loop

Time = 0.0005

Courant Number mean: 0 max: 0
DILUPBiCGStab:  Solving for Ux, Initial residual = 1, Final residual = 0.023463, No Iterations 5
DILUPBiCGStab:  Solving for Uy:  solution singularity
DILUPBiCGStab:  Solving for Uz:  solution singularity
linear solve U 183535
nonePCG:  Solving for p, Initial residual = 1, Final residual = 9.99527e-07, No Iterations 1734
linear solve p 7091336
time step continuity errors : sum local = 2.09046e-10, global = 5.01314e-21, cumulative = 5.01314e-21
nonePCG:  Solving for p, Initial residual = 0.822223, Final residual = 9.98395e-07, No Iterations 1727
linear solve p 7060176
time step continuity errors : sum local = 2.50489e-10, global = -1.99652e-21, cumulative = 3.01662e-21
ExecutionTime = 15.13 s  ClockTime = 15 s

Time = 0.001

Courant Number mean: 0.0388251 max: 0.866522
DILUPBiCGStab:  Solving for Ux, Initial residual = 0.117669, Final residual = 0.0146538, No Iterations 5
DILUPBiCGStab:  Solving for Uy, Initial residual = 0.50661, Final residual = 0.0576255, No Iterations 5
DILUPBiCGStab:  Solving for Uz, Initial residual = 0.91333, Final residual = 0.10981, No Iterations 5
linear solve U 346207
nonePCG:  Solving for p, Initial residual = 0.908312, Final residual = 9.72853e-07, No Iterations 1715
linear solve p 6995877
time step continuity errors : sum local = 5.56884e-10, global = -2.58029e-21, cumulative = 4.36328e-22
nonePCG:  Solving for p, Initial residual = 0.856213, Final residual = 9.93778e-07, No Iterations 1711
linear solve p 6946533
time step continuity errors : sum local = 5.80391e-10, global = -8.25626e-23, cumulative = 3.53765e-22
ExecutionTime = 29.62 s  ClockTime = 30 s

Time = 0.0015

Courant Number mean: 0.0609306 max: 1.02317
DILUPBiCGStab:  Solving for Ux, Initial residual = 0.068079, Final residual = 0.00639649, No Iterations 5
DILUPBiCGStab:  Solving for Uy, Initial residual = 0.356, Final residual = 0.0241804, No Iterations 5
DILUPBiCGStab:  Solving for Uz, Initial residual = 0.764867, Final residual = 0.0749113, No Iterations 5
linear solve U 344293
nonePCG:  Solving for p, Initial residual = 0.940389, Final residual = 9.68677e-07, No Iterations 1716
linear solve p 7000017
time step continuity errors : sum local = 6.79606e-10, global = -4.26625e-22, cumulative = -7.28593e-23
nonePCG:  Solving for p, Initial residual = 0.905528, Final residual = 9.94799e-07, No Iterations 1714
linear solve p 6939996
time step continuity errors : sum local = 6.9201e-10, global = -1.85224e-21, cumulative = -1.9251e-21
ExecutionTime = 44.09 s  ClockTime = 44 s

End

Finalising parallel run
================================================================================
hash: 0afde2c78916de5b0288f8f00900b9fc
/*---------------------------------------------------------------------------*\
| =========                 |                                                 |
| \\      /  F ield         | OpenFOAM: The Open Source CFD Toolbox           |
|  \\    /   O peration     | Version:  2112                                  |
|   \\  /    A nd           | Website:  www.openfoam.com                      |
|    \\/     M anipulation  |                                                 |
\*---------------------------------------------------------------------------*/
Build  : d44c8318f0-20220111 OPENFOAM=2112 version=v2112
Arch   : "LSB;label=32;scalar=64"
Exec   : icoFoam -parallel
Date   : Jan 29 2022
Time   : 22:27:37
Host   : hkn0249.localdomain
PID    : 1801007
I/O    : uncollated
Case   : /hkfs/home/project/hk-project-test-fine/eq4036/data/code/ogl_labbook/lidDrivenCavity/resolution/Variation_mesh/300/Variation_matrix_solver/BiCGStab_NoPrecond_DefaultOF/Variation_mpiRank/72/base
nProcs : 72
Hosts  :
(
    (hkn0249.localdomain 72)
)
Pstream initialized with:
    floatTransfer      : 0
    nProcsSimpleSum    : 0
    commsType          : nonBlocking
    polling iterations : 0
trapFpe: Floating point exception trapping enabled (FOAM_SIGFPE).
fileModificationChecking : Monitoring run-time modified files using timeStampMaster (fileModificationSkew 5, maxFileModificationPolls 20)
allowSystemOperations : Allowing user-supplied system call operations

// * * * * * * * * * * * * * * * * * * * * * * * * * * * * * * * * * * * * * //
Create time

Create mesh for time = 0


PISO: Operating solver in PISO mode

Reading transportProperties

Reading field p

Reading field U

Reading/calculating face flux field phi


Starting time loop

Time = 0.000333333

Courant Number mean: 0 max: 0
DILUPBiCGStab:  Solving for Ux, Initial residual = 1, Final residual = 0.0306566, No Iterations 5
DILUPBiCGStab:  Solving for Uy:  solution singularity
DILUPBiCGStab:  Solving for Uz:  solution singularity
linear solve U 637353
nonePBiCGStab:  Solving for p, Initial residual = 1, Final residual = 5.7604e-07, No Iterations 2089
linear solve p 81173113
time step continuity errors : sum local = 1.0327e-10, global = 4.85364e-21, cumulative = 4.85364e-21
nonePBiCGStab:  Solving for p, Initial residual = 0.836487, Final residual = 9.62796e-07, No Iterations 2136
linear solve p 82238702
time step continuity errors : sum local = 2.3897e-10, global = -2.13124e-21, cumulative = 2.7224e-21
ExecutionTime = 166.13 s  ClockTime = 167 s

Time = 0.000666667

Courant Number mean: 0.0300977 max: 0.891629
DILUPBiCGStab:  Solving for Ux, Initial residual = 0.10616, Final residual = 0.0199577, No Iterations 5
DILUPBiCGStab:  Solving for Uy, Initial residual = 0.546984, Final residual = 0.0971074, No Iterations 5
DILUPBiCGStab:  Solving for Uz, Initial residual = 0.886093, Final residual = 0.171905, No Iterations 5
linear solve U 1240138
nonePBiCGStab:  Solving for p, Initial residual = 0.933598, Final residual = 8.53251e-07, No Iterations 2396
linear solve p 92367266
time step continuity errors : sum local = 5.30239e-10, global = -2.78357e-21, cumulative = -6.1164e-23
nonePBiCGStab:  Solving for p, Initial residual = 0.884939, Final residual = 9.281e-07, No Iterations 2340
linear solve p 90856581
time step continuity errors : sum local = 6.70592e-10, global = -1.26729e-21, cumulative = -1.32846e-21
ExecutionTime = 350.84 s  ClockTime = 352 s

Time = 0.001

Courant Number mean: 0.0482103 max: 1.073
DILUPBiCGStab:  Solving for Ux, Initial residual = 0.0660478, Final residual = 0.00975932, No Iterations 5
DILUPBiCGStab:  Solving for Uy, Initial residual = 0.414725, Final residual = 0.0445335, No Iterations 5
DILUPBiCGStab:  Solving for Uz, Initial residual = 0.788255, Final residual = 0.116655, No Iterations 5
linear solve U 1233004
nonePBiCGStab:  Solving for p, Initial residual = 0.96219, Final residual = 9.48779e-07, No Iterations 2336
linear solve p 89810539
time step continuity errors : sum local = 5.15523e-10, global = -4.63295e-21, cumulative = -5.9614e-21
nonePBiCGStab:  Solving for p, Initial residual = 0.925152, Final residual = 8.35922e-07, No Iterations 2414
linear solve p 93249311
time step continuity errors : sum local = 5.71836e-10, global = -2.79883e-21, cumulative = -8.76024e-21
ExecutionTime = 535.39 s  ClockTime = 538 s

End

Finalising parallel run
================================================================================
hash: c18092ca9b6f367576a5e17faa8b92fc
/*---------------------------------------------------------------------------*\
| =========                 |                                                 |
| \\      /  F ield         | OpenFOAM: The Open Source CFD Toolbox           |
|  \\    /   O peration     | Version:  2112                                  |
|   \\  /    A nd           | Website:  www.openfoam.com                      |
|    \\/     M anipulation  |                                                 |
\*---------------------------------------------------------------------------*/
Build  : d44c8318f0-20220111 OPENFOAM=2112 version=v2112
Arch   : "LSB;label=32;scalar=64"
Exec   : icoFoam -parallel
Date   : Jan 29 2022
Time   : 22:36:38
Host   : hkn0249.localdomain
PID    : 1803116
I/O    : uncollated
Case   : /hkfs/home/project/hk-project-test-fine/eq4036/data/code/ogl_labbook/lidDrivenCavity/resolution/Variation_mesh/300/Variation_matrix_solver/BiCGStab_NoPrecond_DefaultOF/Variation_mpiRank/38/base
nProcs : 38
Hosts  :
(
    (hkn0249.localdomain 38)
)
Pstream initialized with:
    floatTransfer      : 0
    nProcsSimpleSum    : 0
    commsType          : nonBlocking
    polling iterations : 0
trapFpe: Floating point exception trapping enabled (FOAM_SIGFPE).
fileModificationChecking : Monitoring run-time modified files using timeStampMaster (fileModificationSkew 5, maxFileModificationPolls 20)
allowSystemOperations : Allowing user-supplied system call operations

// * * * * * * * * * * * * * * * * * * * * * * * * * * * * * * * * * * * * * //
Create time

Create mesh for time = 0


PISO: Operating solver in PISO mode

Reading transportProperties

Reading field p

Reading field U

Reading/calculating face flux field phi


Starting time loop

Time = 0.000333333

Courant Number mean: 0 max: 0
DILUPBiCGStab:  Solving for Ux, Initial residual = 1, Final residual = 0.0298974, No Iterations 5
DILUPBiCGStab:  Solving for Uy:  solution singularity
DILUPBiCGStab:  Solving for Uz:  solution singularity
linear solve U 736024
nonePBiCGStab:  Solving for p, Initial residual = 1, Final residual = 7.14749e-07, No Iterations 2381
linear solve p 110058144
time step continuity errors : sum local = 1.33034e-10, global = 2.91352e-21, cumulative = 2.91352e-21
nonePBiCGStab:  Solving for p, Initial residual = 0.834877, Final residual = 8.16887e-07, No Iterations 2177
linear solve p 99477092
time step continuity errors : sum local = 1.0095e-10, global = -1.06309e-21, cumulative = 1.85043e-21
ExecutionTime = 213.41 s  ClockTime = 214 s

Time = 0.000666667

Courant Number mean: 0.0302531 max: 0.890986
DILUPBiCGStab:  Solving for Ux, Initial residual = 0.106106, Final residual = 0.0195717, No Iterations 5
DILUPBiCGStab:  Solving for Uy, Initial residual = 0.546655, Final residual = 0.0935808, No Iterations 5
DILUPBiCGStab:  Solving for Uz, Initial residual = 0.931004, Final residual = 0.177275, No Iterations 5
linear solve U 1468547
nonePBiCGStab:  Solving for p, Initial residual = 0.932343, Final residual = 6.93641e-07, No Iterations 2923
linear solve p 134492797
time step continuity errors : sum local = 3.95561e-10, global = -3.23204e-21, cumulative = -1.38161e-21
nonePBiCGStab:  Solving for p, Initial residual = 0.884355, Final residual = 5.80348e-07, No Iterations 2153
linear solve p 97959028
time step continuity errors : sum local = 4.03681e-10, global = -3.1525e-21, cumulative = -4.5341e-21
ExecutionTime = 447.83 s  ClockTime = 449 s

Time = 0.001

Courant Number mean: 0.0484425 max: 1.07233
DILUPBiCGStab:  Solving for Ux, Initial residual = 0.066301, Final residual = 0.00941338, No Iterations 5
DILUPBiCGStab:  Solving for Uy, Initial residual = 0.415884, Final residual = 0.0431963, No Iterations 5
DILUPBiCGStab:  Solving for Uz, Initial residual = 0.812397, Final residual = 0.119773, No Iterations 5
linear solve U 1461732
nonePBiCGStab:  Solving for p, Initial residual = 0.962031, Final residual = 9.92634e-07, No Iterations 1317
linear solve p 60003898
time step continuity errors : sum local = 7.52218e-10, global = -4.96267e-21, cumulative = -9.49677e-21
nonePBiCGStab:  Solving for p, Initial residual = 0.925558, Final residual = 9.9098e-07, No Iterations 1270
linear solve p 57917150
time step continuity errors : sum local = 7.31428e-10, global = -2.97539e-21, cumulative = -1.24722e-20
ExecutionTime = 567.98 s  ClockTime = 570 s

End

Finalising parallel run
================================================================================
hash: a2153a8bb1415b92b98e9990095f5f65
/*---------------------------------------------------------------------------*\
| =========                 |                                                 |
| \\      /  F ield         | OpenFOAM: The Open Source CFD Toolbox           |
|  \\    /   O peration     | Version:  2112                                  |
|   \\  /    A nd           | Website:  www.openfoam.com                      |
|    \\/     M anipulation  |                                                 |
\*---------------------------------------------------------------------------*/
Build  : d44c8318f0-20220111 OPENFOAM=2112 version=v2112
Arch   : "LSB;label=32;scalar=64"
Exec   : icoFoam -parallel
Date   : Jan 29 2022
Time   : 22:46:11
Host   : hkn0249.localdomain
PID    : 1804467
I/O    : uncollated
Case   : /hkfs/home/project/hk-project-test-fine/eq4036/data/code/ogl_labbook/lidDrivenCavity/resolution/Variation_mesh/300/Variation_matrix_solver/CG_NoPrecond_DefaultOF/Variation_mpiRank/72/base
nProcs : 72
Hosts  :
(
    (hkn0249.localdomain 72)
)
Pstream initialized with:
    floatTransfer      : 0
    nProcsSimpleSum    : 0
    commsType          : nonBlocking
    polling iterations : 0
trapFpe: Floating point exception trapping enabled (FOAM_SIGFPE).
fileModificationChecking : Monitoring run-time modified files using timeStampMaster (fileModificationSkew 5, maxFileModificationPolls 20)
allowSystemOperations : Allowing user-supplied system call operations

// * * * * * * * * * * * * * * * * * * * * * * * * * * * * * * * * * * * * * //
Create time

Create mesh for time = 0


PISO: Operating solver in PISO mode

Reading transportProperties

Reading field p

Reading field U

Reading/calculating face flux field phi


Starting time loop

Time = 0.000333333

Courant Number mean: 0 max: 0
DILUPBiCGStab:  Solving for Ux, Initial residual = 1, Final residual = 0.0306566, No Iterations 5
DILUPBiCGStab:  Solving for Uy:  solution singularity
DILUPBiCGStab:  Solving for Uz:  solution singularity
linear solve U 634825
nonePCG:  Solving for p, Initial residual = 1, Final residual = 9.96591e-07, No Iterations 2646
linear solve p 53587241
time step continuity errors : sum local = 1.0659e-10, global = 1.53203e-21, cumulative = 1.53203e-21
nonePCG:  Solving for p, Initial residual = 0.836485, Final residual = 9.75979e-07, No Iterations 2635
linear solve p 51898654
time step continuity errors : sum local = 1.23377e-10, global = -1.64674e-21, cumulative = -1.14715e-22
ExecutionTime = 108.41 s  ClockTime = 109 s

Time = 0.000666667

Courant Number mean: 0.0300976 max: 0.891629
DILUPBiCGStab:  Solving for Ux, Initial residual = 0.106154, Final residual = 0.0199554, No Iterations 5
DILUPBiCGStab:  Solving for Uy, Initial residual = 0.546985, Final residual = 0.0971072, No Iterations 5
DILUPBiCGStab:  Solving for Uz, Initial residual = 0.886065, Final residual = 0.171856, No Iterations 5
linear solve U 1238917
nonePCG:  Solving for p, Initial residual = 0.933602, Final residual = 9.72577e-07, No Iterations 2603
linear solve p 51658047
time step continuity errors : sum local = 3.44671e-10, global = -2.23027e-21, cumulative = -2.34498e-21
nonePCG:  Solving for p, Initial residual = 0.884949, Final residual = 9.85828e-07, No Iterations 2600
linear solve p 51188429
time step continuity errors : sum local = 3.56354e-10, global = -3.95792e-21, cumulative = -6.3029e-21
ExecutionTime = 213.02 s  ClockTime = 214 s

Time = 0.001

Courant Number mean: 0.0482101 max: 1.073
DILUPBiCGStab:  Solving for Ux, Initial residual = 0.0660435, Final residual = 0.00975822, No Iterations 5
DILUPBiCGStab:  Solving for Uy, Initial residual = 0.414725, Final residual = 0.0445331, No Iterations 5
DILUPBiCGStab:  Solving for Uz, Initial residual = 0.788268, Final residual = 0.116659, No Iterations 5
linear solve U 1246204
nonePCG:  Solving for p, Initial residual = 0.962193, Final residual = 9.76499e-07, No Iterations 2616
linear solve p 52028863
time step continuity errors : sum local = 4.99213e-10, global = -2.51948e-21, cumulative = -8.82238e-21
nonePCG:  Solving for p, Initial residual = 0.925151, Final residual = 9.78568e-07, No Iterations 2614
linear solve p 51693801
time step continuity errors : sum local = 4.99851e-10, global = -3.22361e-21, cumulative = -1.2046e-20
ExecutionTime = 318.51 s  ClockTime = 320 s

End

Finalising parallel run
================================================================================
hash: d3fb9bfe62bf04f039eca96110681a08
/*---------------------------------------------------------------------------*\
| =========                 |                                                 |
| \\      /  F ield         | OpenFOAM: The Open Source CFD Toolbox           |
|  \\    /   O peration     | Version:  2112                                  |
|   \\  /    A nd           | Website:  www.openfoam.com                      |
|    \\/     M anipulation  |                                                 |
\*---------------------------------------------------------------------------*/
Build  : d44c8318f0-20220111 OPENFOAM=2112 version=v2112
Arch   : "LSB;label=32;scalar=64"
Exec   : icoFoam -parallel
Date   : Jan 29 2022
Time   : 22:51:34
Host   : hkn0249.localdomain
PID    : 1806397
I/O    : uncollated
Case   : /hkfs/home/project/hk-project-test-fine/eq4036/data/code/ogl_labbook/lidDrivenCavity/resolution/Variation_mesh/300/Variation_matrix_solver/CG_NoPrecond_DefaultOF/Variation_mpiRank/38/base
nProcs : 38
Hosts  :
(
    (hkn0249.localdomain 38)
)
Pstream initialized with:
    floatTransfer      : 0
    nProcsSimpleSum    : 0
    commsType          : nonBlocking
    polling iterations : 0
trapFpe: Floating point exception trapping enabled (FOAM_SIGFPE).
fileModificationChecking : Monitoring run-time modified files using timeStampMaster (fileModificationSkew 5, maxFileModificationPolls 20)
allowSystemOperations : Allowing user-supplied system call operations

// * * * * * * * * * * * * * * * * * * * * * * * * * * * * * * * * * * * * * //
Create time

Create mesh for time = 0


PISO: Operating solver in PISO mode

Reading transportProperties

Reading field p

Reading field U

Reading/calculating face flux field phi


Starting time loop

Time = 0.000333333

Courant Number mean: 0 max: 0
DILUPBiCGStab:  Solving for Ux, Initial residual = 1, Final residual = 0.0298974, No Iterations 5
DILUPBiCGStab:  Solving for Uy:  solution singularity
DILUPBiCGStab:  Solving for Uz:  solution singularity
linear solve U 729204
nonePCG:  Solving for p, Initial residual = 1, Final residual = 9.94492e-07, No Iterations 2643
linear solve p 60320481
time step continuity errors : sum local = 1.02462e-10, global = -3.01803e-21, cumulative = -3.01803e-21
nonePCG:  Solving for p, Initial residual = 0.834876, Final residual = 9.96175e-07, No Iterations 2632
linear solve p 59485880
time step continuity errors : sum local = 1.2174e-10, global = -3.09819e-21, cumulative = -6.11621e-21
ExecutionTime = 124.15 s  ClockTime = 125 s

Time = 0.000666667

Courant Number mean: 0.0302531 max: 0.890986
DILUPBiCGStab:  Solving for Ux, Initial residual = 0.106104, Final residual = 0.0195712, No Iterations 5
DILUPBiCGStab:  Solving for Uy, Initial residual = 0.546657, Final residual = 0.0935813, No Iterations 5
DILUPBiCGStab:  Solving for Uz, Initial residual = 0.930974, Final residual = 0.17723, No Iterations 5
linear solve U 1471375
nonePCG:  Solving for p, Initial residual = 0.932343, Final residual = 9.77425e-07, No Iterations 2603
linear solve p 58031413
time step continuity errors : sum local = 3.39399e-10, global = -1.20461e-21, cumulative = -7.32082e-21
nonePCG:  Solving for p, Initial residual = 0.884356, Final residual = 9.84518e-07, No Iterations 2600
linear solve p 58381724
time step continuity errors : sum local = 3.48669e-10, global = -2.06623e-21, cumulative = -9.38705e-21
ExecutionTime = 242.84 s  ClockTime = 244 s

Time = 0.001

Courant Number mean: 0.0484425 max: 1.07232
DILUPBiCGStab:  Solving for Ux, Initial residual = 0.0663, Final residual = 0.00941319, No Iterations 5
DILUPBiCGStab:  Solving for Uy, Initial residual = 0.415885, Final residual = 0.0431963, No Iterations 5
DILUPBiCGStab:  Solving for Uz, Initial residual = 0.81238, Final residual = 0.119766, No Iterations 5
linear solve U 1478480
nonePCG:  Solving for p, Initial residual = 0.962032, Final residual = 9.81254e-07, No Iterations 2618
linear solve p 59320106
time step continuity errors : sum local = 4.97929e-10, global = -5.30334e-22, cumulative = -9.91739e-21
nonePCG:  Solving for p, Initial residual = 0.925561, Final residual = 9.8936e-07, No Iterations 2616
linear solve p 59419450
time step continuity errors : sum local = 5.01702e-10, global = -3.48485e-21, cumulative = -1.34022e-20
ExecutionTime = 363.83 s  ClockTime = 365 s

End

Finalising parallel run
================================================================================
hash: 2b97bc84bd19172c26f8e7f0db49cef1
/*---------------------------------------------------------------------------*\
| =========                 |                                                 |
| \\      /  F ield         | OpenFOAM: The Open Source CFD Toolbox           |
|  \\    /   O peration     | Version:  2112                                  |
|   \\  /    A nd           | Website:  www.openfoam.com                      |
|    \\/     M anipulation  |                                                 |
\*---------------------------------------------------------------------------*/
Build  : d44c8318f0-20220111 OPENFOAM=2112 version=v2112
Arch   : "LSB;label=32;scalar=64"
Exec   : icoFoam -parallel
Date   : Jan 29 2022
Time   : 23:10:59
Host   : hkn0017.localdomain
PID    : 1389183
I/O    : uncollated
Case   : /hkfs/home/project/hk-project-test-fine/eq4036/data/code/ogl_labbook/lidDrivenCavity/resolution/Variation_mesh/400/Variation_matrix_solver/BiCGStab_NoPrecond_DefaultOF/Variation_mpiRank/72/base
nProcs : 72
Hosts  :
(
    (hkn0017.localdomain 72)
)
Pstream initialized with:
    floatTransfer      : 0
    nProcsSimpleSum    : 0
    commsType          : nonBlocking
    polling iterations : 0
trapFpe: Floating point exception trapping enabled (FOAM_SIGFPE).
fileModificationChecking : Monitoring run-time modified files using timeStampMaster (fileModificationSkew 5, maxFileModificationPolls 20)
allowSystemOperations : Allowing user-supplied system call operations

// * * * * * * * * * * * * * * * * * * * * * * * * * * * * * * * * * * * * * //
Create time

Create mesh for time = 0


PISO: Operating solver in PISO mode

Reading transportProperties

Reading field p

Reading field U

Reading/calculating face flux field phi


Starting time loop

Time = 0.00025

Courant Number mean: 0 max: 0
DILUPBiCGStab:  Solving for Ux, Initial residual = 1, Final residual = 0.0350078, No Iterations 5
DILUPBiCGStab:  Solving for Uy:  solution singularity
DILUPBiCGStab:  Solving for Uz:  solution singularity
linear solve U 1471814
nonePBiCGStab:  Solving for p, Initial residual = 1, Final residual = 3.36335e-07, No Iterations 4307
linear solve p 394200117
time step continuity errors : sum local = 3.41603e-11, global = 3.65549e-21, cumulative = 3.65549e-21
nonePBiCGStab:  Solving for p, Initial residual = 0.843748, Final residual = 9.97923e-07, No Iterations 2942
linear solve p 268929098
time step continuity errors : sum local = 8.10378e-11, global = 6.90502e-23, cumulative = 3.72454e-21
ExecutionTime = 668.42 s  ClockTime = 671 s

Time = 0.0005

Courant Number mean: 0.024651 max: 0.905094
DILUPBiCGStab:  Solving for Ux, Initial residual = 0.0983294, Final residual = 0.0236238, No Iterations 5
DILUPBiCGStab:  Solving for Uy, Initial residual = 0.574991, Final residual = 0.135127, No Iterations 5
DILUPBiCGStab:  Solving for Uz, Initial residual = 0.883825, Final residual = 0.231033, No Iterations 5
linear solve U 2966567
nonePBiCGStab:  Solving for p, Initial residual = 0.94562, Final residual = 9.28056e-07, No Iterations 3097
linear solve p 283317660
time step continuity errors : sum local = 2.67476e-10, global = -1.18802e-21, cumulative = 2.53652e-21
nonePBiCGStab:  Solving for p, Initial residual = 0.899215, Final residual = 7.75199e-07, No Iterations 3137
linear solve p 286331635
time step continuity errors : sum local = 2.765e-10, global = 6.31662e-22, cumulative = 3.16818e-21
ExecutionTime = 1241.01 s  ClockTime = 1246 s

Time = 0.00075

Courant Number mean: 0.0400513 max: 1.11057
DILUPBiCGStab:  Solving for Ux, Initial residual = 0.0630023, Final residual = 0.0125091, No Iterations 5
DILUPBiCGStab:  Solving for Uy, Initial residual = 0.445031, Final residual = 0.0639301, No Iterations 5
DILUPBiCGStab:  Solving for Uz, Initial residual = 0.791022, Final residual = 0.154427, No Iterations 5
linear solve U 2987767
nonePBiCGStab:  Solving for p, Initial residual = 0.971174, Final residual = 2.9518e-07, No Iterations 3931
linear solve p 360315933
time step continuity errors : sum local = 2.18669e-10, global = 2.81267e-22, cumulative = 3.44945e-21
nonePBiCGStab:  Solving for p, Initial residual = 0.932977, Final residual = 4.54915e-07, No Iterations 4117
linear solve p 376951552
time step continuity errors : sum local = 3.01575e-10, global = 2.29866e-23, cumulative = 3.47243e-21
ExecutionTime = 1980.68 s  ClockTime = 1989 s

End

Finalising parallel run
================================================================================
hash: 720fe0e52cef5adce3f199752dfe0b3e
/*---------------------------------------------------------------------------*\
| =========                 |                                                 |
| \\      /  F ield         | OpenFOAM: The Open Source CFD Toolbox           |
|  \\    /   O peration     | Version:  2112                                  |
|   \\  /    A nd           | Website:  www.openfoam.com                      |
|    \\/     M anipulation  |                                                 |
\*---------------------------------------------------------------------------*/
Build  : d44c8318f0-20220111 OPENFOAM=2112 version=v2112
Arch   : "LSB;label=32;scalar=64"
Exec   : icoFoam -parallel
Date   : Jan 29 2022
Time   : 23:44:12
Host   : hkn0017.localdomain
PID    : 1392658
I/O    : uncollated
Case   : /hkfs/home/project/hk-project-test-fine/eq4036/data/code/ogl_labbook/lidDrivenCavity/resolution/Variation_mesh/400/Variation_matrix_solver/CG_NoPrecond_DefaultOF/Variation_mpiRank/72/base
nProcs : 72
Hosts  :
(
    (hkn0017.localdomain 72)
)
Pstream initialized with:
    floatTransfer      : 0
    nProcsSimpleSum    : 0
    commsType          : nonBlocking
    polling iterations : 0
trapFpe: Floating point exception trapping enabled (FOAM_SIGFPE).
fileModificationChecking : Monitoring run-time modified files using timeStampMaster (fileModificationSkew 5, maxFileModificationPolls 20)
allowSystemOperations : Allowing user-supplied system call operations

// * * * * * * * * * * * * * * * * * * * * * * * * * * * * * * * * * * * * * //
Create time

Create mesh for time = 0


PISO: Operating solver in PISO mode

Reading transportProperties

Reading field p

Reading field U

Reading/calculating face flux field phi


Starting time loop

Time = 0.00025

Courant Number mean: 0 max: 0
DILUPBiCGStab:  Solving for Ux, Initial residual = 1, Final residual = 0.0350078, No Iterations 5
DILUPBiCGStab:  Solving for Uy:  solution singularity
DILUPBiCGStab:  Solving for Uz:  solution singularity
linear solve U 1472928
nonePCG:  Solving for p, Initial residual = 1, Final residual = 9.8193e-07, No Iterations 3486
linear solve p 168448860
time step continuity errors : sum local = 6.3198e-11, global = 2.99553e-21, cumulative = 2.99553e-21
nonePCG:  Solving for p, Initial residual = 0.843748, Final residual = 9.9033e-07, No Iterations 3474
linear solve p 169150339
time step continuity errors : sum local = 7.48014e-11, global = -4.57307e-22, cumulative = 2.53822e-21
ExecutionTime = 344.07 s  ClockTime = 345 s

Time = 0.0005

Courant Number mean: 0.024651 max: 0.905094
DILUPBiCGStab:  Solving for Ux, Initial residual = 0.0983305, Final residual = 0.0236242, No Iterations 5
DILUPBiCGStab:  Solving for Uy, Initial residual = 0.574991, Final residual = 0.135127, No Iterations 5
DILUPBiCGStab:  Solving for Uz, Initial residual = 0.883831, Final residual = 0.231028, No Iterations 5
linear solve U 2970324
nonePCG:  Solving for p, Initial residual = 0.94562, Final residual = 9.85864e-07, No Iterations 3474
linear solve p 167784996
time step continuity errors : sum local = 2.4053e-10, global = 1.8125e-21, cumulative = 4.35073e-21
nonePCG:  Solving for p, Initial residual = 0.899214, Final residual = 9.8958e-07, No Iterations 3470
linear solve p 168750614
time step continuity errors : sum local = 2.46208e-10, global = -2.68731e-22, cumulative = 4.082e-21
ExecutionTime = 684.6 s  ClockTime = 687 s

Time = 0.00075

Courant Number mean: 0.0400513 max: 1.11057
DILUPBiCGStab:  Solving for Ux, Initial residual = 0.063, Final residual = 0.0125079, No Iterations 5
DILUPBiCGStab:  Solving for Uy, Initial residual = 0.445031, Final residual = 0.0639302, No Iterations 5
DILUPBiCGStab:  Solving for Uz, Initial residual = 0.790979, Final residual = 0.154414, No Iterations 5
linear solve U 2963452
nonePCG:  Solving for p, Initial residual = 0.971175, Final residual = 9.89957e-07, No Iterations 3474
linear solve p 169195673
time step continuity errors : sum local = 3.82767e-10, global = 4.68483e-22, cumulative = 4.55048e-21
nonePCG:  Solving for p, Initial residual = 0.932974, Final residual = 9.94803e-07, No Iterations 3471
linear solve p 170168583
time step continuity errors : sum local = 3.85838e-10, global = 7.30377e-22, cumulative = 5.28086e-21
ExecutionTime = 1027.97 s  ClockTime = 1032 s

End

Finalising parallel run
================================================================================
hash: 6c20aa1f5fc38ffada5e28895154d40c
/*---------------------------------------------------------------------------*\
| =========                 |                                                 |
| \\      /  F ield         | OpenFOAM: The Open Source CFD Toolbox           |
|  \\    /   O peration     | Version:  2112                                  |
|   \\  /    A nd           | Website:  www.openfoam.com                      |
|    \\/     M anipulation  |                                                 |
\*---------------------------------------------------------------------------*/
Build  : d44c8318f0-20220111 OPENFOAM=2112 version=v2112
Arch   : "LSB;label=32;scalar=64"
Exec   : icoFoam -parallel
Date   : Jan 29 2022
Time   : 23:14:54
Host   : hkn0249.localdomain
PID    : 1814105
I/O    : uncollated
Case   : /hkfs/home/project/hk-project-test-fine/eq4036/data/code/ogl_labbook/lidDrivenCavity/resolution/Variation_mesh/500/Variation_matrix_solver/BiCGStab_NoPrecond_DefaultOF/Variation_mpiRank/72/base
nProcs : 72
Hosts  :
(
    (hkn0249.localdomain 72)
)
Pstream initialized with:
    floatTransfer      : 0
    nProcsSimpleSum    : 0
    commsType          : nonBlocking
    polling iterations : 0
trapFpe: Floating point exception trapping enabled (FOAM_SIGFPE).
fileModificationChecking : Monitoring run-time modified files using timeStampMaster (fileModificationSkew 5, maxFileModificationPolls 20)
allowSystemOperations : Allowing user-supplied system call operations

// * * * * * * * * * * * * * * * * * * * * * * * * * * * * * * * * * * * * * //
Create time

Create mesh for time = 0


PISO: Operating solver in PISO mode

Reading transportProperties

Reading field p

Reading field U

Reading/calculating face flux field phi


Starting time loop

Time = 0.0002

Courant Number mean: 0 max: 0
DILUPBiCGStab:  Solving for Ux, Initial residual = 1, Final residual = 0.038041, No Iterations 5
DILUPBiCGStab:  Solving for Uy:  solution singularity
DILUPBiCGStab:  Solving for Uz:  solution singularity
linear solve U 2982610
nonePBiCGStab:  Solving for p, Initial residual = 1, Final residual = 4.69225e-07, No Iterations 3754
linear solve p 674358254
time step continuity errors : sum local = 3.29085e-11, global = -1.39863e-21, cumulative = -1.39863e-21
nonePBiCGStab:  Solving for p, Initial residual = 0.849262, Final residual = 2.11995e-07, No Iterations 5659
linear solve p 1013096054
time step continuity errors : sum local = 1.85873e-11, global = -1.09379e-21, cumulative = -2.49243e-21
ExecutionTime = 1695.72 s  ClockTime = 1704 s

Time = 0.0004

Courant Number mean: 0.0208855 max: 0.913889
DILUPBiCGStab:  Solving for Ux, Initial residual = 0.0925863, Final residual = 0.0259725, No Iterations 5
DILUPBiCGStab:  Solving for Uy, Initial residual = 0.596867, Final residual = 0.167666, No Iterations 5
DILUPBiCGStab:  Solving for Uz, Initial residual = 0.892451, Final residual = 0.283705, No Iterations 5
linear solve U 6120404
nonePBiCGStab:  Solving for p, Initial residual = 0.95283, Final residual = 9.50069e-07, No Iterations 5173
linear solve p 927091022
time step continuity errors : sum local = 2.74093e-10, global = -2.23112e-21, cumulative = -4.72355e-21
nonePBiCGStab:  Solving for p, Initial residual = 0.908058, Final residual = 9.94361e-07, No Iterations 1876
linear solve p 338255634
time step continuity errors : sum local = 2.98863e-10, global = -1.27945e-21, cumulative = -6.003e-21
ExecutionTime = 2967.19 s  ClockTime = 2980 s

Time = 0.0006

Courant Number mean: 0.0344096 max: 1.13924
DILUPBiCGStab:  Solving for Ux, Initial residual = 0.0601899, Final residual = 0.0145813, No Iterations 5
DILUPBiCGStab:  Solving for Uy, Initial residual = 0.46527, Final residual = 0.0826108, No Iterations 5
DILUPBiCGStab:  Solving for Uz, Initial residual = 0.802949, Final residual = 0.189095, No Iterations 5
linear solve U 6125150
nonePBiCGStab:  Solving for p, Initial residual = 0.976008, Final residual = 3.77253e-07, No Iterations 4833
linear solve p 867141763
time step continuity errors : sum local = 1.3623e-10, global = -1.05516e-21, cumulative = -7.05816e-21
nonePBiCGStab:  Solving for p, Initial residual = 0.937451, Final residual = 8.90123e-07, No Iterations 6076
linear solve p 1091942142
time step continuity errors : sum local = 5.41663e-10, global = -1.11512e-21, cumulative = -8.17328e-21
ExecutionTime = 4929.35 s  ClockTime = 4950 s

End

Finalising parallel run
================================================================================
hash: eb8ff6a9a7007afd542ffb38682e27a0
/*---------------------------------------------------------------------------*\
| =========                 |                                                 |
| \\      /  F ield         | OpenFOAM: The Open Source CFD Toolbox           |
|  \\    /   O peration     | Version:  2112                                  |
|   \\  /    A nd           | Website:  www.openfoam.com                      |
|    \\/     M anipulation  |                                                 |
\*---------------------------------------------------------------------------*/
Build  : d44c8318f0-20220111 OPENFOAM=2112 version=v2112
Arch   : "LSB;label=32;scalar=64"
Exec   : icoFoam -parallel
Date   : Jan 30 2022
Time   : 00:37:29
Host   : hkn0249.localdomain
PID    : 1820393
I/O    : uncollated
Case   : /hkfs/home/project/hk-project-test-fine/eq4036/data/code/ogl_labbook/lidDrivenCavity/resolution/Variation_mesh/500/Variation_matrix_solver/CG_NoPrecond_DefaultOF/Variation_mpiRank/72/base
nProcs : 72
Hosts  :
(
    (hkn0249.localdomain 72)
)
Pstream initialized with:
    floatTransfer      : 0
    nProcsSimpleSum    : 0
    commsType          : nonBlocking
    polling iterations : 0
trapFpe: Floating point exception trapping enabled (FOAM_SIGFPE).
fileModificationChecking : Monitoring run-time modified files using timeStampMaster (fileModificationSkew 5, maxFileModificationPolls 20)
allowSystemOperations : Allowing user-supplied system call operations

// * * * * * * * * * * * * * * * * * * * * * * * * * * * * * * * * * * * * * //
Create time

Create mesh for time = 0


PISO: Operating solver in PISO mode

Reading transportProperties

Reading field p

Reading field U

Reading/calculating face flux field phi


Starting time loop

Time = 0.0002

Courant Number mean: 0 max: 0
DILUPBiCGStab:  Solving for Ux, Initial residual = 1, Final residual = 0.038041, No Iterations 5
DILUPBiCGStab:  Solving for Uy:  solution singularity
DILUPBiCGStab:  Solving for Uz:  solution singularity
linear solve U 2981637
nonePCG:  Solving for p, Initial residual = 1, Final residual = 9.8755e-07, No Iterations 4376
linear solve p 422603324
time step continuity errors : sum local = 4.25269e-11, global = 7.46861e-22, cumulative = 7.46861e-22
nonePCG:  Solving for p, Initial residual = 0.849261, Final residual = 9.98223e-07, No Iterations 4363
linear solve p 421141615
time step continuity errors : sum local = 5.01758e-11, global = -8.80125e-22, cumulative = -1.33264e-22
ExecutionTime = 855.62 s  ClockTime = 860 s

Time = 0.0004

Courant Number mean: 0.0208855 max: 0.913889
DILUPBiCGStab:  Solving for Ux, Initial residual = 0.0925863, Final residual = 0.0259725, No Iterations 5
DILUPBiCGStab:  Solving for Uy, Initial residual = 0.596867, Final residual = 0.167666, No Iterations 5
DILUPBiCGStab:  Solving for Uz, Initial residual = 0.892444, Final residual = 0.283692, No Iterations 5
linear solve U 6135898
nonePCG:  Solving for p, Initial residual = 0.95283, Final residual = 9.91795e-07, No Iterations 4289
linear solve p 414235420
time step continuity errors : sum local = 1.79103e-10, global = -1.70746e-21, cumulative = -1.84073e-21
nonePCG:  Solving for p, Initial residual = 0.908059, Final residual = 9.99837e-07, No Iterations 4285
linear solve p 412843121
time step continuity errors : sum local = 1.84106e-10, global = -1.35673e-21, cumulative = -3.19746e-21
ExecutionTime = 1690.36 s  ClockTime = 1698 s

Time = 0.0006

Courant Number mean: 0.0344096 max: 1.13924
DILUPBiCGStab:  Solving for Ux, Initial residual = 0.0601905, Final residual = 0.0145817, No Iterations 5
DILUPBiCGStab:  Solving for Uy, Initial residual = 0.465249, Final residual = 0.0825998, No Iterations 5
DILUPBiCGStab:  Solving for Uz, Initial residual = 0.80213, Final residual = 0.188508, No Iterations 5
linear solve U 6105980
nonePCG:  Solving for p, Initial residual = 0.976008, Final residual = 9.97125e-07, No Iterations 2487
linear solve p 241084725
time step continuity errors : sum local = 3.20332e-10, global = -1.63635e-21, cumulative = -4.83381e-21
nonePCG:  Solving for p, Initial residual = 0.937463, Final residual = 9.95704e-07, No Iterations 2477
linear solve p 238884851
time step continuity errors : sum local = 3.07534e-10, global = -1.75338e-21, cumulative = -6.58719e-21
ExecutionTime = 2179.49 s  ClockTime = 2189 s

End

Finalising parallel run
================================================================================
hash: 1544496bc9b6abca3bb4fa75ff8083ce
/*---------------------------------------------------------------------------*\
| =========                 |                                                 |
| \\      /  F ield         | OpenFOAM: The Open Source CFD Toolbox           |
|  \\    /   O peration     | Version:  2112                                  |
|   \\  /    A nd           | Website:  www.openfoam.com                      |
|    \\/     M anipulation  |                                                 |
\*---------------------------------------------------------------------------*/
Build  : d44c8318f0-20220111 OPENFOAM=2112 version=v2112
Arch   : "LSB;label=32;scalar=64"
Exec   : icoFoam -parallel
Date   : Jan 30 2022
Time   : 01:16:03
Host   : hkn1141.localdomain
PID    : 3709577
I/O    : uncollated
Case   : /hkfs/home/project/hk-project-test-fine/eq4036/data/code/ogl_labbook/lidDrivenCavity/resolution/Variation_mesh/300/Variation_matrix_solver/CG_NoPrecond_DefaultOF/Variation_mpiRank/72/base
nProcs : 72
Hosts  :
(
    (hkn1141.localdomain 72)
)
Pstream initialized with:
    floatTransfer      : 0
    nProcsSimpleSum    : 0
    commsType          : nonBlocking
    polling iterations : 0
trapFpe: Floating point exception trapping enabled (FOAM_SIGFPE).
fileModificationChecking : Monitoring run-time modified files using timeStampMaster (fileModificationSkew 5, maxFileModificationPolls 20)
allowSystemOperations : Allowing user-supplied system call operations

// * * * * * * * * * * * * * * * * * * * * * * * * * * * * * * * * * * * * * //
Create time

Create mesh for time = 0


PISO: Operating solver in PISO mode

Reading transportProperties

Reading field p

Reading field U

Reading/calculating face flux field phi


Starting time loop

Time = 0.000333333

Courant Number mean: 0 max: 0
DILUPBiCGStab:  Solving for Ux, Initial residual = 1, Final residual = 0.0306566, No Iterations 5
DILUPBiCGStab:  Solving for Uy:  solution singularity
DILUPBiCGStab:  Solving for Uz:  solution singularity
linear solve U 623022
nonePCG:  Solving for p, Initial residual = 1, Final residual = 9.96591e-07, No Iterations 2646
linear solve p 52547208
time step continuity errors : sum local = 1.0659e-10, global = 1.53203e-21, cumulative = 1.53203e-21
nonePCG:  Solving for p, Initial residual = 0.836485, Final residual = 9.75979e-07, No Iterations 2635
linear solve p 52497157
time step continuity errors : sum local = 1.23377e-10, global = -1.64674e-21, cumulative = -1.14715e-22
ExecutionTime = 107.92 s  ClockTime = 109 s

Time = 0.000666667

Courant Number mean: 0.0300976 max: 0.891629
DILUPBiCGStab:  Solving for Ux, Initial residual = 0.106154, Final residual = 0.0199554, No Iterations 5
DILUPBiCGStab:  Solving for Uy, Initial residual = 0.546985, Final residual = 0.0971072, No Iterations 5
DILUPBiCGStab:  Solving for Uz, Initial residual = 0.886065, Final residual = 0.171856, No Iterations 5
linear solve U 1244893
nonePCG:  Solving for p, Initial residual = 0.933602, Final residual = 9.72577e-07, No Iterations 2603
linear solve p 51174967
time step continuity errors : sum local = 3.44671e-10, global = -2.23027e-21, cumulative = -2.34498e-21
nonePCG:  Solving for p, Initial residual = 0.884949, Final residual = 9.85828e-07, No Iterations 2600
linear solve p 51818676
time step continuity errors : sum local = 3.56354e-10, global = -3.95792e-21, cumulative = -6.3029e-21
ExecutionTime = 212.71 s  ClockTime = 214 s

Time = 0.001

Courant Number mean: 0.0482101 max: 1.073
DILUPBiCGStab:  Solving for Ux, Initial residual = 0.0660435, Final residual = 0.00975822, No Iterations 5
DILUPBiCGStab:  Solving for Uy, Initial residual = 0.414725, Final residual = 0.0445331, No Iterations 5
DILUPBiCGStab:  Solving for Uz, Initial residual = 0.788268, Final residual = 0.116659, No Iterations 5
linear solve U 1245641
nonePCG:  Solving for p, Initial residual = 0.962193, Final residual = 9.76499e-07, No Iterations 2616
linear solve p 52028988
time step continuity errors : sum local = 4.99213e-10, global = -2.51948e-21, cumulative = -8.82238e-21
nonePCG:  Solving for p, Initial residual = 0.925151, Final residual = 9.78568e-07, No Iterations 2614
linear solve p 51840237
time step continuity errors : sum local = 4.99851e-10, global = -3.22361e-21, cumulative = -1.2046e-20
ExecutionTime = 318.36 s  ClockTime = 320 s

End

Finalising parallel run
================================================================================
