hash: bb5f7bd8c7763151a17ad3dbb9c493c7
/*---------------------------------------------------------------------------*\
| =========                 |                                                 |
| \\      /  F ield         | OpenFOAM: The Open Source CFD Toolbox           |
|  \\    /   O peration     | Version:  2112                                  |
|   \\  /    A nd           | Website:  www.openfoam.com                      |
|    \\/     M anipulation  |                                                 |
\*---------------------------------------------------------------------------*/
Build  : d44c8318f0-20220111 OPENFOAM=2112 version=v2112
Arch   : "LSB;label=32;scalar=64"
Exec   : icoFoam -parallel
Date   : Jan 29 2022
Time   : 13:43:20
Host   : hkn0017.localdomain
PID    : 1307682
I/O    : uncollated
Case   : /hkfs/home/project/hk-project-test-fine/eq4036/data/code/ogl_labbook/lidDrivenCavity/resolution/Variation_mesh/100/Variation_matrix_solver/BiCGStab_DIC_DefaultOF/Variation_mpiRank/38/base
nProcs : 38
Hosts  :
(
    (hkn0017.localdomain 38)
)
Pstream initialized with:
    floatTransfer      : 0
    nProcsSimpleSum    : 0
    commsType          : nonBlocking
    polling iterations : 0
trapFpe: Floating point exception trapping enabled (FOAM_SIGFPE).
fileModificationChecking : Monitoring run-time modified files using timeStampMaster (fileModificationSkew 5, maxFileModificationPolls 20)
allowSystemOperations : Allowing user-supplied system call operations

// * * * * * * * * * * * * * * * * * * * * * * * * * * * * * * * * * * * * * //
Create time

Create mesh for time = 0


PISO: Operating solver in PISO mode

Reading transportProperties

Reading field p

Reading field U

Reading/calculating face flux field phi


Starting time loop

Time = 0.001

Courant Number mean: 0 max: 0
DILUPBiCGStab:  Solving for Ux, Initial residual = 1, Final residual = 0.0113126, No Iterations 5
DILUPBiCGStab:  Solving for Uy:  solution singularity
DILUPBiCGStab:  Solving for Uz:  solution singularity
linear solve U 18028
DICPBiCGStab:  Solving for p, Initial residual = 1, Final residual = 9.1958e-07, No Iterations 260
linear solve p 364356
time step continuity errors : sum local = 6.96484e-10, global = 4.65398e-21, cumulative = 4.65398e-21
DICPBiCGStab:  Solving for p, Initial residual = 0.777482, Final residual = 7.25876e-07, No Iterations 252
linear solve p 316729
time step continuity errors : sum local = 9.19953e-10, global = -8.49473e-21, cumulative = -3.84075e-21
ExecutionTime = 0.95 s  ClockTime = 1 s

Time = 0.002

Courant Number mean: 0.0552338 max: 0.807703
DILUPBiCGStab:  Solving for Ux, Initial residual = 0.137184, Final residual = 0.00605913, No Iterations 5
DILUPBiCGStab:  Solving for Uy, Initial residual = 0.431634, Final residual = 0.0172431, No Iterations 5
DILUPBiCGStab:  Solving for Uz, Initial residual = 0.955191, Final residual = 0.0355998, No Iterations 5
linear solve U 28241
DICPBiCGStab:  Solving for p, Initial residual = 0.818387, Final residual = 9.56965e-07, No Iterations 258
linear solve p 324102
time step continuity errors : sum local = 1.67912e-09, global = 1.08243e-20, cumulative = 6.98352e-21
DICPBiCGStab:  Solving for p, Initial residual = 0.758256, Final residual = 9.47768e-07, No Iterations 244
linear solve p 308356
time step continuity errors : sum local = 2.17885e-09, global = -2.63035e-20, cumulative = -1.932e-20
ExecutionTime = 1.63 s  ClockTime = 2 s

Time = 0.003

Courant Number mean: 0.0841486 max: 0.943746
DILUPBiCGStab:  Solving for Ux, Initial residual = 0.0644972, Final residual = 0.00215494, No Iterations 5
DILUPBiCGStab:  Solving for Uy, Initial residual = 0.226247, Final residual = 0.00574289, No Iterations 5
DILUPBiCGStab:  Solving for Uz, Initial residual = 0.730664, Final residual = 0.0239031, No Iterations 5
linear solve U 28243
DICPBiCGStab:  Solving for p, Initial residual = 0.841213, Final residual = 9.31212e-07, No Iterations 255
linear solve p 318697
time step continuity errors : sum local = 1.21258e-09, global = -4.61807e-21, cumulative = -2.39381e-20
DICPBiCGStab:  Solving for p, Initial residual = 0.807279, Final residual = 5.56528e-07, No Iterations 242
linear solve p 303539
time step continuity errors : sum local = 5.6813e-10, global = -1.69589e-20, cumulative = -4.08969e-20
ExecutionTime = 2.3 s  ClockTime = 3 s

End

Finalising parallel run
================================================================================
hash: 7aa1bd04370d5d9241d21649005f8937
/*---------------------------------------------------------------------------*\
| =========                 |                                                 |
| \\      /  F ield         | OpenFOAM: The Open Source CFD Toolbox           |
|  \\    /   O peration     | Version:  2112                                  |
|   \\  /    A nd           | Website:  www.openfoam.com                      |
|    \\/     M anipulation  |                                                 |
\*---------------------------------------------------------------------------*/
Build  : d44c8318f0-20220111 OPENFOAM=2112 version=v2112
Arch   : "LSB;label=32;scalar=64"
Exec   : icoFoam -parallel
Date   : Jan 29 2022
Time   : 13:43:25
Host   : hkn0017.localdomain
PID    : 1308534
I/O    : uncollated
Case   : /hkfs/home/project/hk-project-test-fine/eq4036/data/code/ogl_labbook/lidDrivenCavity/resolution/Variation_mesh/100/Variation_matrix_solver/BiCGStab_NoPrecond_DefaultOF/Variation_mpiRank/38/base
nProcs : 38
Hosts  :
(
    (hkn0017.localdomain 38)
)
Pstream initialized with:
    floatTransfer      : 0
    nProcsSimpleSum    : 0
    commsType          : nonBlocking
    polling iterations : 0
trapFpe: Floating point exception trapping enabled (FOAM_SIGFPE).
fileModificationChecking : Monitoring run-time modified files using timeStampMaster (fileModificationSkew 5, maxFileModificationPolls 20)
allowSystemOperations : Allowing user-supplied system call operations

// * * * * * * * * * * * * * * * * * * * * * * * * * * * * * * * * * * * * * //
Create time

Create mesh for time = 0


PISO: Operating solver in PISO mode

Reading transportProperties

Reading field p

Reading field U

Reading/calculating face flux field phi


Starting time loop

Time = 0.001

Courant Number mean: 0 max: 0
DILUPBiCGStab:  Solving for Ux, Initial residual = 1, Final residual = 0.0113126, No Iterations 5
DILUPBiCGStab:  Solving for Uy:  solution singularity
DILUPBiCGStab:  Solving for Uz:  solution singularity
linear solve U 19060
nonePBiCGStab:  Solving for p, Initial residual = 1, Final residual = 8.06407e-07, No Iterations 643
linear solve p 532362
time step continuity errors : sum local = 8.5748e-10, global = -1.25553e-20, cumulative = -1.25553e-20
nonePBiCGStab:  Solving for p, Initial residual = 0.777481, Final residual = 4.50376e-07, No Iterations 633
linear solve p 493513
time step continuity errors : sum local = 6.70783e-10, global = 7.666e-21, cumulative = -4.88928e-21
ExecutionTime = 1.24 s  ClockTime = 1 s

Time = 0.002

Courant Number mean: 0.0552338 max: 0.807703
DILUPBiCGStab:  Solving for Ux, Initial residual = 0.137183, Final residual = 0.00605906, No Iterations 5
DILUPBiCGStab:  Solving for Uy, Initial residual = 0.431634, Final residual = 0.017243, No Iterations 5
DILUPBiCGStab:  Solving for Uz, Initial residual = 0.95518, Final residual = 0.0356026, No Iterations 5
linear solve U 28524
nonePBiCGStab:  Solving for p, Initial residual = 0.818392, Final residual = 6.55061e-07, No Iterations 678
linear solve p 529207
time step continuity errors : sum local = 7.72056e-10, global = -2.8321e-20, cumulative = -3.32103e-20
nonePBiCGStab:  Solving for p, Initial residual = 0.758267, Final residual = 4.56797e-07, No Iterations 670
linear solve p 522900
time step continuity errors : sum local = 1.04825e-09, global = -9.87682e-21, cumulative = -4.30871e-20
ExecutionTime = 2.35 s  ClockTime = 3 s

Time = 0.003

Courant Number mean: 0.0841485 max: 0.943745
DILUPBiCGStab:  Solving for Ux, Initial residual = 0.0644949, Final residual = 0.00215467, No Iterations 5
DILUPBiCGStab:  Solving for Uy, Initial residual = 0.226244, Final residual = 0.00574223, No Iterations 5
DILUPBiCGStab:  Solving for Uz, Initial residual = 0.73064, Final residual = 0.0239012, No Iterations 5
linear solve U 28107
nonePBiCGStab:  Solving for p, Initial residual = 0.841211, Final residual = 9.92019e-07, No Iterations 708
linear solve p 578338
time step continuity errors : sum local = 1.38229e-09, global = -2.95398e-20, cumulative = -7.26269e-20
nonePBiCGStab:  Solving for p, Initial residual = 0.80726, Final residual = 9.16203e-07, No Iterations 635
linear solve p 496358
time step continuity errors : sum local = 1.81128e-09, global = -2.27144e-20, cumulative = -9.53413e-20
ExecutionTime = 3.48 s  ClockTime = 4 s

End

Finalising parallel run
================================================================================
hash: 875a050376003f4fc9b2911750396019
/*---------------------------------------------------------------------------*\
| =========                 |                                                 |
| \\      /  F ield         | OpenFOAM: The Open Source CFD Toolbox           |
|  \\    /   O peration     | Version:  2112                                  |
|   \\  /    A nd           | Website:  www.openfoam.com                      |
|    \\/     M anipulation  |                                                 |
\*---------------------------------------------------------------------------*/
Build  : d44c8318f0-20220111 OPENFOAM=2112 version=v2112
Arch   : "LSB;label=32;scalar=64"
Exec   : icoFoam -parallel
Date   : Jan 29 2022
Time   : 13:43:31
Host   : hkn0017.localdomain
PID    : 1309380
I/O    : uncollated
Case   : /hkfs/home/project/hk-project-test-fine/eq4036/data/code/ogl_labbook/lidDrivenCavity/resolution/Variation_mesh/100/Variation_matrix_solver/CG_NoPrecond_DefaultOF/Variation_mpiRank/38/base
nProcs : 38
Hosts  :
(
    (hkn0017.localdomain 38)
)
Pstream initialized with:
    floatTransfer      : 0
    nProcsSimpleSum    : 0
    commsType          : nonBlocking
    polling iterations : 0
trapFpe: Floating point exception trapping enabled (FOAM_SIGFPE).
fileModificationChecking : Monitoring run-time modified files using timeStampMaster (fileModificationSkew 5, maxFileModificationPolls 20)
allowSystemOperations : Allowing user-supplied system call operations

// * * * * * * * * * * * * * * * * * * * * * * * * * * * * * * * * * * * * * //
Create time

Create mesh for time = 0


PISO: Operating solver in PISO mode

Reading transportProperties

Reading field p

Reading field U

Reading/calculating face flux field phi


Starting time loop

Time = 0.001

Courant Number mean: 0 max: 0
DILUPBiCGStab:  Solving for Ux, Initial residual = 1, Final residual = 0.0113126, No Iterations 5
DILUPBiCGStab:  Solving for Uy:  solution singularity
DILUPBiCGStab:  Solving for Uz:  solution singularity
linear solve U 19394
nonePCG:  Solving for p, Initial residual = 1, Final residual = 9.27114e-07, No Iterations 860
linear solve p 293332
time step continuity errors : sum local = 5.48667e-10, global = -1.46971e-20, cumulative = -1.46971e-20
nonePCG:  Solving for p, Initial residual = 0.777482, Final residual = 9.63513e-07, No Iterations 854
linear solve p 317380
time step continuity errors : sum local = 7.17517e-10, global = -5.31884e-21, cumulative = -2.0016e-20
ExecutionTime = 0.83 s  ClockTime = 1 s

Time = 0.002

Courant Number mean: 0.0552338 max: 0.807703
DILUPBiCGStab:  Solving for Ux, Initial residual = 0.137184, Final residual = 0.00605911, No Iterations 5
DILUPBiCGStab:  Solving for Uy, Initial residual = 0.431634, Final residual = 0.017243, No Iterations 5
DILUPBiCGStab:  Solving for Uz, Initial residual = 0.955192, Final residual = 0.0356001, No Iterations 5
linear solve U 28959
nonePCG:  Solving for p, Initial residual = 0.818388, Final residual = 9.54141e-07, No Iterations 850
linear solve p 287954
time step continuity errors : sum local = 1.07633e-09, global = -1.28301e-20, cumulative = -3.28461e-20
nonePCG:  Solving for p, Initial residual = 0.75826, Final residual = 9.97728e-07, No Iterations 847
linear solve p 288190
time step continuity errors : sum local = 1.14986e-09, global = -2.0501e-20, cumulative = -5.33471e-20
ExecutionTime = 1.46 s  ClockTime = 1 s

Time = 0.003

Courant Number mean: 0.0841485 max: 0.943746
DILUPBiCGStab:  Solving for Ux, Initial residual = 0.0644956, Final residual = 0.00215472, No Iterations 5
DILUPBiCGStab:  Solving for Uy, Initial residual = 0.226245, Final residual = 0.00574233, No Iterations 5
DILUPBiCGStab:  Solving for Uz, Initial residual = 0.730635, Final residual = 0.0239016, No Iterations 5
linear solve U 28242
nonePCG:  Solving for p, Initial residual = 0.84121, Final residual = 9.75301e-07, No Iterations 847
linear solve p 287352
time step continuity errors : sum local = 9.88047e-10, global = -1.91582e-20, cumulative = -7.25053e-20
nonePCG:  Solving for p, Initial residual = 0.807262, Final residual = 9.78209e-07, No Iterations 845
linear solve p 318770
time step continuity errors : sum local = 9.66959e-10, global = -2.33359e-20, cumulative = -9.58412e-20
ExecutionTime = 2.12 s  ClockTime = 2 s

End

Finalising parallel run
================================================================================
hash: 8d9d5a88d81318f3674d4687c573b673
/*---------------------------------------------------------------------------*\
| =========                 |                                                 |
| \\      /  F ield         | OpenFOAM: The Open Source CFD Toolbox           |
|  \\    /   O peration     | Version:  2112                                  |
|   \\  /    A nd           | Website:  www.openfoam.com                      |
|    \\/     M anipulation  |                                                 |
\*---------------------------------------------------------------------------*/
Build  : d44c8318f0-20220111 OPENFOAM=2112 version=v2112
Arch   : "LSB;label=32;scalar=64"
Exec   : icoFoam -parallel
Date   : Jan 29 2022
Time   : 13:43:35
Host   : hkn0017.localdomain
PID    : 1310225
I/O    : uncollated
Case   : /hkfs/home/project/hk-project-test-fine/eq4036/data/code/ogl_labbook/lidDrivenCavity/resolution/Variation_mesh/100/Variation_matrix_solver/CG_DIC_DefaultOF/Variation_mpiRank/38/base
nProcs : 38
Hosts  :
(
    (hkn0017.localdomain 38)
)
Pstream initialized with:
    floatTransfer      : 0
    nProcsSimpleSum    : 0
    commsType          : nonBlocking
    polling iterations : 0
trapFpe: Floating point exception trapping enabled (FOAM_SIGFPE).
fileModificationChecking : Monitoring run-time modified files using timeStampMaster (fileModificationSkew 5, maxFileModificationPolls 20)
allowSystemOperations : Allowing user-supplied system call operations

// * * * * * * * * * * * * * * * * * * * * * * * * * * * * * * * * * * * * * //
Create time

Create mesh for time = 0


PISO: Operating solver in PISO mode

Reading transportProperties

Reading field p

Reading field U

Reading/calculating face flux field phi


Starting time loop

Time = 0.001

Courant Number mean: 0 max: 0
DILUPBiCGStab:  Solving for Ux, Initial residual = 1, Final residual = 0.0113126, No Iterations 5
DILUPBiCGStab:  Solving for Uy:  solution singularity
DILUPBiCGStab:  Solving for Uz:  solution singularity
linear solve U 19113
DICPCG:  Solving for p, Initial residual = 1, Final residual = 9.82124e-07, No Iterations 383
linear solve p 218643
time step continuity errors : sum local = 5.81307e-10, global = -2.91265e-20, cumulative = -2.91265e-20
DICPCG:  Solving for p, Initial residual = 0.777482, Final residual = 9.58333e-07, No Iterations 380
linear solve p 238846
time step continuity errors : sum local = 7.1376e-10, global = -1.09329e-20, cumulative = -4.00594e-20
ExecutionTime = 0.67 s  ClockTime = 1 s

Time = 0.002

Courant Number mean: 0.0552338 max: 0.807703
DILUPBiCGStab:  Solving for Ux, Initial residual = 0.137184, Final residual = 0.00605911, No Iterations 5
DILUPBiCGStab:  Solving for Uy, Initial residual = 0.431634, Final residual = 0.017243, No Iterations 5
DILUPBiCGStab:  Solving for Uz, Initial residual = 0.955192, Final residual = 0.0356001, No Iterations 5
linear solve U 31502
DICPCG:  Solving for p, Initial residual = 0.818388, Final residual = 9.81511e-07, No Iterations 375
linear solve p 223700
time step continuity errors : sum local = 1.10718e-09, global = -8.3275e-21, cumulative = -4.83869e-20
DICPCG:  Solving for p, Initial residual = 0.75826, Final residual = 9.72869e-07, No Iterations 374
linear solve p 212195
time step continuity errors : sum local = 1.12118e-09, global = -1.35367e-20, cumulative = -6.19236e-20
ExecutionTime = 1.17 s  ClockTime = 2 s

Time = 0.003

Courant Number mean: 0.0841485 max: 0.943746
DILUPBiCGStab:  Solving for Ux, Initial residual = 0.0644956, Final residual = 0.00215472, No Iterations 5
DILUPBiCGStab:  Solving for Uy, Initial residual = 0.226245, Final residual = 0.00574235, No Iterations 5
DILUPBiCGStab:  Solving for Uz, Initial residual = 0.730633, Final residual = 0.0239013, No Iterations 5
linear solve U 28312
DICPCG:  Solving for p, Initial residual = 0.84121, Final residual = 9.71422e-07, No Iterations 374
linear solve p 211238
time step continuity errors : sum local = 9.84118e-10, global = -8.54714e-21, cumulative = -7.04707e-20
DICPCG:  Solving for p, Initial residual = 0.807262, Final residual = 9.15062e-07, No Iterations 374
linear solve p 211161
time step continuity errors : sum local = 9.04546e-10, global = -2.22943e-20, cumulative = -9.27651e-20
ExecutionTime = 1.65 s  ClockTime = 2 s

End

Finalising parallel run
================================================================================
hash: b7d21109c255926c92b68a0ad8c618a5
/*---------------------------------------------------------------------------*\
| =========                 |                                                 |
| \\      /  F ield         | OpenFOAM: The Open Source CFD Toolbox           |
|  \\    /   O peration     | Version:  2112                                  |
|   \\  /    A nd           | Website:  www.openfoam.com                      |
|    \\/     M anipulation  |                                                 |
\*---------------------------------------------------------------------------*/
Build  : d44c8318f0-20220111 OPENFOAM=2112 version=v2112
Arch   : "LSB;label=32;scalar=64"
Exec   : icoFoam -parallel
Date   : Jan 29 2022
Time   : 13:45:01
Host   : hkn0017.localdomain
PID    : 1314059
I/O    : uncollated
Case   : /hkfs/home/project/hk-project-test-fine/eq4036/data/code/ogl_labbook/lidDrivenCavity/resolution/Variation_mesh/100/Variation_matrix_solver/BiCGStab_DIC_DefaultOF/Variation_mpiRank/38/base
nProcs : 38
Hosts  :
(
    (hkn0017.localdomain 38)
)
Pstream initialized with:
    floatTransfer      : 0
    nProcsSimpleSum    : 0
    commsType          : nonBlocking
    polling iterations : 0
trapFpe: Floating point exception trapping enabled (FOAM_SIGFPE).
fileModificationChecking : Monitoring run-time modified files using timeStampMaster (fileModificationSkew 5, maxFileModificationPolls 20)
allowSystemOperations : Allowing user-supplied system call operations

// * * * * * * * * * * * * * * * * * * * * * * * * * * * * * * * * * * * * * //
Create time

Create mesh for time = 0


PISO: Operating solver in PISO mode

Reading transportProperties

Reading field p

Reading field U

Reading/calculating face flux field phi


Starting time loop

Time = 0.001

Courant Number mean: 0 max: 0
DILUPBiCGStab:  Solving for Ux, Initial residual = 1, Final residual = 0.0113126, No Iterations 5
DILUPBiCGStab:  Solving for Uy:  solution singularity
DILUPBiCGStab:  Solving for Uz:  solution singularity
linear solve U 17886
DICPBiCGStab:  Solving for p, Initial residual = 1, Final residual = 9.1958e-07, No Iterations 260
linear solve p 330117
time step continuity errors : sum local = 6.96484e-10, global = 4.65398e-21, cumulative = 4.65398e-21
DICPBiCGStab:  Solving for p, Initial residual = 0.777482, Final residual = 7.25876e-07, No Iterations 252
linear solve p 343754
time step continuity errors : sum local = 9.19953e-10, global = -8.49473e-21, cumulative = -3.84075e-21
ExecutionTime = 0.88 s  ClockTime = 1 s

Time = 0.002

Courant Number mean: 0.0552338 max: 0.807703
DILUPBiCGStab:  Solving for Ux, Initial residual = 0.137184, Final residual = 0.00605913, No Iterations 5
DILUPBiCGStab:  Solving for Uy, Initial residual = 0.431634, Final residual = 0.0172431, No Iterations 5
DILUPBiCGStab:  Solving for Uz, Initial residual = 0.955191, Final residual = 0.0355998, No Iterations 5
linear solve U 28476
DICPBiCGStab:  Solving for p, Initial residual = 0.818387, Final residual = 9.56965e-07, No Iterations 258
linear solve p 324406
time step continuity errors : sum local = 1.67912e-09, global = 1.08243e-20, cumulative = 6.98352e-21
DICPBiCGStab:  Solving for p, Initial residual = 0.758256, Final residual = 9.47768e-07, No Iterations 244
linear solve p 305726
time step continuity errors : sum local = 2.17885e-09, global = -2.63035e-20, cumulative = -1.932e-20
ExecutionTime = 1.57 s  ClockTime = 2 s

Time = 0.003

Courant Number mean: 0.0841486 max: 0.943746
DILUPBiCGStab:  Solving for Ux, Initial residual = 0.0644972, Final residual = 0.00215494, No Iterations 5
DILUPBiCGStab:  Solving for Uy, Initial residual = 0.226247, Final residual = 0.00574289, No Iterations 5
DILUPBiCGStab:  Solving for Uz, Initial residual = 0.730664, Final residual = 0.0239031, No Iterations 5
linear solve U 28201
DICPBiCGStab:  Solving for p, Initial residual = 0.841213, Final residual = 9.31212e-07, No Iterations 255
linear solve p 325295
time step continuity errors : sum local = 1.21258e-09, global = -4.61807e-21, cumulative = -2.39381e-20
DICPBiCGStab:  Solving for p, Initial residual = 0.807279, Final residual = 5.56528e-07, No Iterations 242
linear solve p 306044
time step continuity errors : sum local = 5.6813e-10, global = -1.69589e-20, cumulative = -4.08969e-20
ExecutionTime = 2.25 s  ClockTime = 2 s

End

Finalising parallel run
================================================================================
hash: 33c1dde94f165317df544c375c7dbc97
/*---------------------------------------------------------------------------*\
| =========                 |                                                 |
| \\      /  F ield         | OpenFOAM: The Open Source CFD Toolbox           |
|  \\    /   O peration     | Version:  2112                                  |
|   \\  /    A nd           | Website:  www.openfoam.com                      |
|    \\/     M anipulation  |                                                 |
\*---------------------------------------------------------------------------*/
Build  : d44c8318f0-20220111 OPENFOAM=2112 version=v2112
Arch   : "LSB;label=32;scalar=64"
Exec   : icoFoam -parallel
Date   : Jan 29 2022
Time   : 13:45:06
Host   : hkn0017.localdomain
PID    : 1314905
I/O    : uncollated
Case   : /hkfs/home/project/hk-project-test-fine/eq4036/data/code/ogl_labbook/lidDrivenCavity/resolution/Variation_mesh/100/Variation_matrix_solver/BiCGStab_NoPrecond_DefaultOF/Variation_mpiRank/38/base
nProcs : 38
Hosts  :
(
    (hkn0017.localdomain 38)
)
Pstream initialized with:
    floatTransfer      : 0
    nProcsSimpleSum    : 0
    commsType          : nonBlocking
    polling iterations : 0
trapFpe: Floating point exception trapping enabled (FOAM_SIGFPE).
fileModificationChecking : Monitoring run-time modified files using timeStampMaster (fileModificationSkew 5, maxFileModificationPolls 20)
allowSystemOperations : Allowing user-supplied system call operations

// * * * * * * * * * * * * * * * * * * * * * * * * * * * * * * * * * * * * * //
Create time

Create mesh for time = 0


PISO: Operating solver in PISO mode

Reading transportProperties

Reading field p

Reading field U

Reading/calculating face flux field phi


Starting time loop

Time = 0.001

Courant Number mean: 0 max: 0
DILUPBiCGStab:  Solving for Ux, Initial residual = 1, Final residual = 0.0113126, No Iterations 5
DILUPBiCGStab:  Solving for Uy:  solution singularity
DILUPBiCGStab:  Solving for Uz:  solution singularity
linear solve U 18605
nonePBiCGStab:  Solving for p, Initial residual = 1, Final residual = 8.06407e-07, No Iterations 643
linear solve p 520541
time step continuity errors : sum local = 8.5748e-10, global = -1.25553e-20, cumulative = -1.25553e-20
nonePBiCGStab:  Solving for p, Initial residual = 0.777481, Final residual = 4.50376e-07, No Iterations 633
linear solve p 507594
time step continuity errors : sum local = 6.70783e-10, global = 7.666e-21, cumulative = -4.88928e-21
ExecutionTime = 1.23 s  ClockTime = 1 s

Time = 0.002

Courant Number mean: 0.0552338 max: 0.807703
DILUPBiCGStab:  Solving for Ux, Initial residual = 0.137183, Final residual = 0.00605906, No Iterations 5
DILUPBiCGStab:  Solving for Uy, Initial residual = 0.431634, Final residual = 0.017243, No Iterations 5
DILUPBiCGStab:  Solving for Uz, Initial residual = 0.95518, Final residual = 0.0356026, No Iterations 5
linear solve U 28414
nonePBiCGStab:  Solving for p, Initial residual = 0.818392, Final residual = 6.55061e-07, No Iterations 678
linear solve p 529276
time step continuity errors : sum local = 7.72056e-10, global = -2.8321e-20, cumulative = -3.32103e-20
nonePBiCGStab:  Solving for p, Initial residual = 0.758267, Final residual = 4.56797e-07, No Iterations 670
linear solve p 522662
time step continuity errors : sum local = 1.04825e-09, global = -9.87682e-21, cumulative = -4.30871e-20
ExecutionTime = 2.33 s  ClockTime = 2 s

Time = 0.003

Courant Number mean: 0.0841485 max: 0.943745
DILUPBiCGStab:  Solving for Ux, Initial residual = 0.0644949, Final residual = 0.00215467, No Iterations 5
DILUPBiCGStab:  Solving for Uy, Initial residual = 0.226244, Final residual = 0.00574223, No Iterations 5
DILUPBiCGStab:  Solving for Uz, Initial residual = 0.73064, Final residual = 0.0239012, No Iterations 5
linear solve U 28239
nonePBiCGStab:  Solving for p, Initial residual = 0.841211, Final residual = 9.92019e-07, No Iterations 708
linear solve p 579586
time step continuity errors : sum local = 1.38229e-09, global = -2.95398e-20, cumulative = -7.26269e-20
nonePBiCGStab:  Solving for p, Initial residual = 0.80726, Final residual = 9.16203e-07, No Iterations 635
linear solve p 498400
time step continuity errors : sum local = 1.81128e-09, global = -2.27144e-20, cumulative = -9.53413e-20
ExecutionTime = 3.47 s  ClockTime = 3 s

End

Finalising parallel run
================================================================================
hash: 08895cd4cba1d3d013cf962eeba02608
/*---------------------------------------------------------------------------*\
| =========                 |                                                 |
| \\      /  F ield         | OpenFOAM: The Open Source CFD Toolbox           |
|  \\    /   O peration     | Version:  2112                                  |
|   \\  /    A nd           | Website:  www.openfoam.com                      |
|    \\/     M anipulation  |                                                 |
\*---------------------------------------------------------------------------*/
Build  : d44c8318f0-20220111 OPENFOAM=2112 version=v2112
Arch   : "LSB;label=32;scalar=64"
Exec   : icoFoam -parallel
Date   : Jan 29 2022
Time   : 13:45:12
Host   : hkn0017.localdomain
PID    : 1315754
I/O    : uncollated
Case   : /hkfs/home/project/hk-project-test-fine/eq4036/data/code/ogl_labbook/lidDrivenCavity/resolution/Variation_mesh/100/Variation_matrix_solver/CG_NoPrecond_DefaultOF/Variation_mpiRank/38/base
nProcs : 38
Hosts  :
(
    (hkn0017.localdomain 38)
)
Pstream initialized with:
    floatTransfer      : 0
    nProcsSimpleSum    : 0
    commsType          : nonBlocking
    polling iterations : 0
trapFpe: Floating point exception trapping enabled (FOAM_SIGFPE).
fileModificationChecking : Monitoring run-time modified files using timeStampMaster (fileModificationSkew 5, maxFileModificationPolls 20)
allowSystemOperations : Allowing user-supplied system call operations

// * * * * * * * * * * * * * * * * * * * * * * * * * * * * * * * * * * * * * //
Create time

Create mesh for time = 0


PISO: Operating solver in PISO mode

Reading transportProperties

Reading field p

Reading field U

Reading/calculating face flux field phi


Starting time loop

Time = 0.001

Courant Number mean: 0 max: 0
DILUPBiCGStab:  Solving for Ux, Initial residual = 1, Final residual = 0.0113126, No Iterations 5
DILUPBiCGStab:  Solving for Uy:  solution singularity
DILUPBiCGStab:  Solving for Uz:  solution singularity
linear solve U 17737
nonePCG:  Solving for p, Initial residual = 1, Final residual = 9.27114e-07, No Iterations 860
linear solve p 293276
time step continuity errors : sum local = 5.48667e-10, global = -1.46971e-20, cumulative = -1.46971e-20
nonePCG:  Solving for p, Initial residual = 0.777482, Final residual = 9.63513e-07, No Iterations 854
linear solve p 333345
time step continuity errors : sum local = 7.17517e-10, global = -5.31884e-21, cumulative = -2.0016e-20
ExecutionTime = 0.87 s  ClockTime = 1 s

Time = 0.002

Courant Number mean: 0.0552338 max: 0.807703
DILUPBiCGStab:  Solving for Ux, Initial residual = 0.137184, Final residual = 0.00605911, No Iterations 5
DILUPBiCGStab:  Solving for Uy, Initial residual = 0.431634, Final residual = 0.017243, No Iterations 5
DILUPBiCGStab:  Solving for Uz, Initial residual = 0.955192, Final residual = 0.0356001, No Iterations 5
linear solve U 28375
nonePCG:  Solving for p, Initial residual = 0.818388, Final residual = 9.54141e-07, No Iterations 850
linear solve p 287556
time step continuity errors : sum local = 1.07633e-09, global = -1.28301e-20, cumulative = -3.28461e-20
nonePCG:  Solving for p, Initial residual = 0.75826, Final residual = 9.97728e-07, No Iterations 847
linear solve p 286941
time step continuity errors : sum local = 1.14986e-09, global = -2.0501e-20, cumulative = -5.33471e-20
ExecutionTime = 1.5 s  ClockTime = 1 s

Time = 0.003

Courant Number mean: 0.0841485 max: 0.943746
DILUPBiCGStab:  Solving for Ux, Initial residual = 0.0644956, Final residual = 0.00215472, No Iterations 5
DILUPBiCGStab:  Solving for Uy, Initial residual = 0.226245, Final residual = 0.00574233, No Iterations 5
DILUPBiCGStab:  Solving for Uz, Initial residual = 0.730635, Final residual = 0.0239016, No Iterations 5
linear solve U 28086
nonePCG:  Solving for p, Initial residual = 0.84121, Final residual = 9.75301e-07, No Iterations 847
linear solve p 286817
time step continuity errors : sum local = 9.88047e-10, global = -1.91582e-20, cumulative = -7.25053e-20
nonePCG:  Solving for p, Initial residual = 0.807262, Final residual = 9.78209e-07, No Iterations 845
linear solve p 289610
time step continuity errors : sum local = 9.66959e-10, global = -2.33359e-20, cumulative = -9.58412e-20
ExecutionTime = 2.13 s  ClockTime = 2 s

End

Finalising parallel run
================================================================================
hash: 61fa34b45dde7f9947ab02b274787ccc
/*---------------------------------------------------------------------------*\
| =========                 |                                                 |
| \\      /  F ield         | OpenFOAM: The Open Source CFD Toolbox           |
|  \\    /   O peration     | Version:  2112                                  |
|   \\  /    A nd           | Website:  www.openfoam.com                      |
|    \\/     M anipulation  |                                                 |
\*---------------------------------------------------------------------------*/
Build  : d44c8318f0-20220111 OPENFOAM=2112 version=v2112
Arch   : "LSB;label=32;scalar=64"
Exec   : icoFoam -parallel
Date   : Jan 29 2022
Time   : 13:45:16
Host   : hkn0017.localdomain
PID    : 1316610
I/O    : uncollated
Case   : /hkfs/home/project/hk-project-test-fine/eq4036/data/code/ogl_labbook/lidDrivenCavity/resolution/Variation_mesh/100/Variation_matrix_solver/CG_DIC_DefaultOF/Variation_mpiRank/38/base
nProcs : 38
Hosts  :
(
    (hkn0017.localdomain 38)
)
Pstream initialized with:
    floatTransfer      : 0
    nProcsSimpleSum    : 0
    commsType          : nonBlocking
    polling iterations : 0
trapFpe: Floating point exception trapping enabled (FOAM_SIGFPE).
fileModificationChecking : Monitoring run-time modified files using timeStampMaster (fileModificationSkew 5, maxFileModificationPolls 20)
allowSystemOperations : Allowing user-supplied system call operations

// * * * * * * * * * * * * * * * * * * * * * * * * * * * * * * * * * * * * * //
Create time

Create mesh for time = 0


PISO: Operating solver in PISO mode

Reading transportProperties

Reading field p

Reading field U

Reading/calculating face flux field phi


Starting time loop

Time = 0.001

Courant Number mean: 0 max: 0
DILUPBiCGStab:  Solving for Ux, Initial residual = 1, Final residual = 0.0113126, No Iterations 5
DILUPBiCGStab:  Solving for Uy:  solution singularity
DILUPBiCGStab:  Solving for Uz:  solution singularity
linear solve U 18840
DICPCG:  Solving for p, Initial residual = 1, Final residual = 9.82124e-07, No Iterations 383
linear solve p 218139
time step continuity errors : sum local = 5.81307e-10, global = -2.91265e-20, cumulative = -2.91265e-20
DICPCG:  Solving for p, Initial residual = 0.777482, Final residual = 9.58333e-07, No Iterations 380
linear solve p 217450
time step continuity errors : sum local = 7.1376e-10, global = -1.09329e-20, cumulative = -4.00594e-20
ExecutionTime = 0.64 s  ClockTime = 1 s

Time = 0.002

Courant Number mean: 0.0552338 max: 0.807703
DILUPBiCGStab:  Solving for Ux, Initial residual = 0.137184, Final residual = 0.00605911, No Iterations 5
DILUPBiCGStab:  Solving for Uy, Initial residual = 0.431634, Final residual = 0.017243, No Iterations 5
DILUPBiCGStab:  Solving for Uz, Initial residual = 0.955192, Final residual = 0.0356001, No Iterations 5
linear solve U 42195
DICPCG:  Solving for p, Initial residual = 0.818388, Final residual = 9.81511e-07, No Iterations 375
linear solve p 240533
time step continuity errors : sum local = 1.10718e-09, global = -8.3275e-21, cumulative = -4.83869e-20
DICPCG:  Solving for p, Initial residual = 0.75826, Final residual = 9.72869e-07, No Iterations 374
linear solve p 211846
time step continuity errors : sum local = 1.12118e-09, global = -1.35367e-20, cumulative = -6.19236e-20
ExecutionTime = 1.17 s  ClockTime = 1 s

Time = 0.003

Courant Number mean: 0.0841485 max: 0.943746
DILUPBiCGStab:  Solving for Ux, Initial residual = 0.0644956, Final residual = 0.00215472, No Iterations 5
DILUPBiCGStab:  Solving for Uy, Initial residual = 0.226245, Final residual = 0.00574235, No Iterations 5
DILUPBiCGStab:  Solving for Uz, Initial residual = 0.730633, Final residual = 0.0239013, No Iterations 5
linear solve U 28215
DICPCG:  Solving for p, Initial residual = 0.84121, Final residual = 9.71422e-07, No Iterations 374
linear solve p 211537
time step continuity errors : sum local = 9.84118e-10, global = -8.54714e-21, cumulative = -7.04707e-20
DICPCG:  Solving for p, Initial residual = 0.807262, Final residual = 9.15062e-07, No Iterations 374
linear solve p 222384
time step continuity errors : sum local = 9.04546e-10, global = -2.22943e-20, cumulative = -9.27651e-20
ExecutionTime = 1.65 s  ClockTime = 2 s

End

Finalising parallel run
================================================================================
hash: f8ae30798a4a0b228b144a9140d1a4a6
/*---------------------------------------------------------------------------*\
| =========                 |                                                 |
| \\      /  F ield         | OpenFOAM: The Open Source CFD Toolbox           |
|  \\    /   O peration     | Version:  2112                                  |
|   \\  /    A nd           | Website:  www.openfoam.com                      |
|    \\/     M anipulation  |                                                 |
\*---------------------------------------------------------------------------*/
Build  : d44c8318f0-20220111 OPENFOAM=2112 version=v2112
Arch   : "LSB;label=32;scalar=64"
Exec   : icoFoam -parallel
Date   : Jan 29 2022
Time   : 13:46:25
Host   : hkn0017.localdomain
PID    : 1320460
I/O    : uncollated
Case   : /hkfs/home/project/hk-project-test-fine/eq4036/data/code/ogl_labbook/lidDrivenCavity/resolution/Variation_mesh/200/Variation_matrix_solver/BiCGStab_DIC_DefaultOF/Variation_mpiRank/38/base
nProcs : 38
Hosts  :
(
    (hkn0017.localdomain 38)
)
Pstream initialized with:
    floatTransfer      : 0
    nProcsSimpleSum    : 0
    commsType          : nonBlocking
    polling iterations : 0
trapFpe: Floating point exception trapping enabled (FOAM_SIGFPE).
fileModificationChecking : Monitoring run-time modified files using timeStampMaster (fileModificationSkew 5, maxFileModificationPolls 20)
allowSystemOperations : Allowing user-supplied system call operations

// * * * * * * * * * * * * * * * * * * * * * * * * * * * * * * * * * * * * * //
Create time

Create mesh for time = 0


PISO: Operating solver in PISO mode

Reading transportProperties

Reading field p

Reading field U

Reading/calculating face flux field phi


Starting time loop

Time = 0.0005

Courant Number mean: 0 max: 0
DILUPBiCGStab:  Solving for Ux, Initial residual = 1, Final residual = 0.0226536, No Iterations 5
DILUPBiCGStab:  Solving for Uy:  solution singularity
DILUPBiCGStab:  Solving for Uz:  solution singularity
linear solve U 227790
DICPBiCGStab:  Solving for p, Initial residual = 1, Final residual = 9.69991e-07, No Iterations 572
linear solve p 12082942
time step continuity errors : sum local = 1.97857e-10, global = 6.389e-21, cumulative = 6.389e-21
DICPBiCGStab:  Solving for p, Initial residual = 0.821098, Final residual = 8.82531e-07, No Iterations 538
linear solve p 11279350
time step continuity errors : sum local = 2.26146e-10, global = 1.85818e-22, cumulative = 6.57482e-21
ExecutionTime = 26.35 s  ClockTime = 27 s

Time = 0.001

Courant Number mean: 0.0390096 max: 0.865218
DILUPBiCGStab:  Solving for Ux, Initial residual = 0.117655, Final residual = 0.0140556, No Iterations 5
DILUPBiCGStab:  Solving for Uy, Initial residual = 0.506314, Final residual = 0.0544892, No Iterations 5
DILUPBiCGStab:  Solving for Uz, Initial residual = 0.939702, Final residual = 0.107518, No Iterations 5
linear solve U 417437
DICPBiCGStab:  Solving for p, Initial residual = 0.905712, Final residual = 7.99288e-07, No Iterations 520
linear solve p 10826054
time step continuity errors : sum local = 5.39048e-10, global = 5.43936e-22, cumulative = 7.11876e-21
DICPBiCGStab:  Solving for p, Initial residual = 0.853849, Final residual = 9.86335e-07, No Iterations 518
linear solve p 10729607
time step continuity errors : sum local = 7.82852e-10, global = -1.27377e-21, cumulative = 5.84499e-21
ExecutionTime = 48.58 s  ClockTime = 49 s

Time = 0.0015

Courant Number mean: 0.0611853 max: 1.02198
DILUPBiCGStab:  Solving for Ux, Initial residual = 0.0682932, Final residual = 0.00607507, No Iterations 5
DILUPBiCGStab:  Solving for Uy, Initial residual = 0.357271, Final residual = 0.0230404, No Iterations 5
DILUPBiCGStab:  Solving for Uz, Initial residual = 0.79075, Final residual = 0.0726412, No Iterations 5
linear solve U 415332
DICPBiCGStab:  Solving for p, Initial residual = 0.939843, Final residual = 4.22236e-07, No Iterations 577
linear solve p 12041746
time step continuity errors : sum local = 3.08151e-10, global = -1.63121e-21, cumulative = 4.21377e-21
DICPBiCGStab:  Solving for p, Initial residual = 0.905298, Final residual = 9.93969e-07, No Iterations 314
linear solve p 6472103
time step continuity errors : sum local = 1.19908e-09, global = 2.49488e-21, cumulative = 6.70865e-21
ExecutionTime = 67.77 s  ClockTime = 69 s

End

Finalising parallel run
================================================================================
hash: e96e1c38f9d4009de0342ff7a6fee80f
/*---------------------------------------------------------------------------*\
| =========                 |                                                 |
| \\      /  F ield         | OpenFOAM: The Open Source CFD Toolbox           |
|  \\    /   O peration     | Version:  2112                                  |
|   \\  /    A nd           | Website:  www.openfoam.com                      |
|    \\/     M anipulation  |                                                 |
\*---------------------------------------------------------------------------*/
Build  : d44c8318f0-20220111 OPENFOAM=2112 version=v2112
Arch   : "LSB;label=32;scalar=64"
Exec   : icoFoam -parallel
Date   : Jan 29 2022
Time   : 13:47:36
Host   : hkn0017.localdomain
PID    : 1321356
I/O    : uncollated
Case   : /hkfs/home/project/hk-project-test-fine/eq4036/data/code/ogl_labbook/lidDrivenCavity/resolution/Variation_mesh/200/Variation_matrix_solver/BiCGStab_NoPrecond_DefaultOF/Variation_mpiRank/38/base
nProcs : 38
Hosts  :
(
    (hkn0017.localdomain 38)
)
Pstream initialized with:
    floatTransfer      : 0
    nProcsSimpleSum    : 0
    commsType          : nonBlocking
    polling iterations : 0
trapFpe: Floating point exception trapping enabled (FOAM_SIGFPE).
fileModificationChecking : Monitoring run-time modified files using timeStampMaster (fileModificationSkew 5, maxFileModificationPolls 20)
allowSystemOperations : Allowing user-supplied system call operations

// * * * * * * * * * * * * * * * * * * * * * * * * * * * * * * * * * * * * * //
Create time

Create mesh for time = 0


PISO: Operating solver in PISO mode

Reading transportProperties

Reading field p

Reading field U

Reading/calculating face flux field phi


Starting time loop

Time = 0.0005

Courant Number mean: 0 max: 0
DILUPBiCGStab:  Solving for Ux, Initial residual = 1, Final residual = 0.0226536, No Iterations 5
DILUPBiCGStab:  Solving for Uy:  solution singularity
DILUPBiCGStab:  Solving for Uz:  solution singularity
linear solve U 205780
nonePBiCGStab:  Solving for p, Initial residual = 1, Final residual = 2.86716e-07, No Iterations 1353
linear solve p 17123198
time step continuity errors : sum local = 1.16792e-10, global = 4.89091e-21, cumulative = 4.89091e-21
nonePBiCGStab:  Solving for p, Initial residual = 0.821098, Final residual = 1.90356e-07, No Iterations 1687
linear solve p 21238823
time step continuity errors : sum local = 9.30999e-11, global = 9.4234e-23, cumulative = 4.98514e-21
ExecutionTime = 39.54 s  ClockTime = 40 s

Time = 0.001

Courant Number mean: 0.0390096 max: 0.865218
DILUPBiCGStab:  Solving for Ux, Initial residual = 0.117655, Final residual = 0.0140556, No Iterations 5
DILUPBiCGStab:  Solving for Uy, Initial residual = 0.506314, Final residual = 0.0544893, No Iterations 5
DILUPBiCGStab:  Solving for Uz, Initial residual = 0.939701, Final residual = 0.107518, No Iterations 5
linear solve U 406076
nonePBiCGStab:  Solving for p, Initial residual = 0.905713, Final residual = 9.97653e-07, No Iterations 755
linear solve p 9434272
time step continuity errors : sum local = 1.10511e-09, global = -6.20013e-21, cumulative = -1.21499e-21
nonePBiCGStab:  Solving for p, Initial residual = 0.853855, Final residual = 9.9612e-07, No Iterations 678
linear solve p 8501442
time step continuity errors : sum local = 6.09869e-10, global = 5.08561e-22, cumulative = -7.06428e-22
ExecutionTime = 58.12 s  ClockTime = 59 s

Time = 0.0015

Courant Number mean: 0.0611853 max: 1.02198
DILUPBiCGStab:  Solving for Ux, Initial residual = 0.0682922, Final residual = 0.00607479, No Iterations 5
DILUPBiCGStab:  Solving for Uy, Initial residual = 0.357275, Final residual = 0.023042, No Iterations 5
DILUPBiCGStab:  Solving for Uz, Initial residual = 0.790847, Final residual = 0.0726521, No Iterations 5
linear solve U 407456
nonePBiCGStab:  Solving for p, Initial residual = 0.939845, Final residual = 8.84716e-07, No Iterations 1335
linear solve p 16887992
time step continuity errors : sum local = 1.2278e-09, global = 3.50089e-21, cumulative = 2.79446e-21
nonePBiCGStab:  Solving for p, Initial residual = 0.905297, Final residual = 9.42734e-07, No Iterations 626
linear solve p 7942613
time step continuity errors : sum local = 9.95183e-10, global = 3.99916e-21, cumulative = 6.79362e-21
ExecutionTime = 83.56 s  ClockTime = 84 s

End

Finalising parallel run
================================================================================
hash: 75ef41b3a8e19f7c8d24c523ca0bbbe3
/*---------------------------------------------------------------------------*\
| =========                 |                                                 |
| \\      /  F ield         | OpenFOAM: The Open Source CFD Toolbox           |
|  \\    /   O peration     | Version:  2112                                  |
|   \\  /    A nd           | Website:  www.openfoam.com                      |
|    \\/     M anipulation  |                                                 |
\*---------------------------------------------------------------------------*/
Build  : d44c8318f0-20220111 OPENFOAM=2112 version=v2112
Arch   : "LSB;label=32;scalar=64"
Exec   : icoFoam -parallel
Date   : Jan 29 2022
Time   : 13:49:03
Host   : hkn0017.localdomain
PID    : 1322275
I/O    : uncollated
Case   : /hkfs/home/project/hk-project-test-fine/eq4036/data/code/ogl_labbook/lidDrivenCavity/resolution/Variation_mesh/200/Variation_matrix_solver/CG_NoPrecond_DefaultOF/Variation_mpiRank/38/base
nProcs : 38
Hosts  :
(
    (hkn0017.localdomain 38)
)
Pstream initialized with:
    floatTransfer      : 0
    nProcsSimpleSum    : 0
    commsType          : nonBlocking
    polling iterations : 0
trapFpe: Floating point exception trapping enabled (FOAM_SIGFPE).
fileModificationChecking : Monitoring run-time modified files using timeStampMaster (fileModificationSkew 5, maxFileModificationPolls 20)
allowSystemOperations : Allowing user-supplied system call operations

// * * * * * * * * * * * * * * * * * * * * * * * * * * * * * * * * * * * * * //
Create time

Create mesh for time = 0


PISO: Operating solver in PISO mode

Reading transportProperties

Reading field p

Reading field U

Reading/calculating face flux field phi


Starting time loop

Time = 0.0005

Courant Number mean: 0 max: 0
DILUPBiCGStab:  Solving for Ux, Initial residual = 1, Final residual = 0.0226536, No Iterations 5
DILUPBiCGStab:  Solving for Uy:  solution singularity
DILUPBiCGStab:  Solving for Uz:  solution singularity
linear solve U 206571
nonePCG:  Solving for p, Initial residual = 1, Final residual = 9.81028e-07, No Iterations 1738
linear solve p 9411969
time step continuity errors : sum local = 1.99808e-10, global = 1.19659e-21, cumulative = 1.19659e-21
nonePCG:  Solving for p, Initial residual = 0.821098, Final residual = 9.918e-07, No Iterations 1731
linear solve p 9241269
time step continuity errors : sum local = 2.42893e-10, global = 1.98393e-21, cumulative = 3.18051e-21
ExecutionTime = 19.95 s  ClockTime = 20 s

Time = 0.001

Courant Number mean: 0.0390096 max: 0.865218
DILUPBiCGStab:  Solving for Ux, Initial residual = 0.117655, Final residual = 0.0140556, No Iterations 5
DILUPBiCGStab:  Solving for Uy, Initial residual = 0.506314, Final residual = 0.0544892, No Iterations 5
DILUPBiCGStab:  Solving for Uz, Initial residual = 0.939701, Final residual = 0.107517, No Iterations 5
linear solve U 412813
nonePCG:  Solving for p, Initial residual = 0.905713, Final residual = 9.73353e-07, No Iterations 1719
linear solve p 9074980
time step continuity errors : sum local = 5.41233e-10, global = -4.61851e-21, cumulative = -1.43799e-21
nonePCG:  Solving for p, Initial residual = 0.853849, Final residual = 9.59247e-07, No Iterations 1717
linear solve p 9242223
time step continuity errors : sum local = 5.44148e-10, global = -1.86946e-21, cumulative = -3.30745e-21
ExecutionTime = 38.92 s  ClockTime = 39 s

Time = 0.0015

Courant Number mean: 0.0611853 max: 1.02198
DILUPBiCGStab:  Solving for Ux, Initial residual = 0.0682933, Final residual = 0.00607511, No Iterations 5
DILUPBiCGStab:  Solving for Uy, Initial residual = 0.35727, Final residual = 0.0230401, No Iterations 5
DILUPBiCGStab:  Solving for Uz, Initial residual = 0.790695, Final residual = 0.0726353, No Iterations 5
linear solve U 411992
nonePCG:  Solving for p, Initial residual = 0.939844, Final residual = 9.88631e-07, No Iterations 1172
linear solve p 6211733
time step continuity errors : sum local = 7.47668e-10, global = 3.37638e-22, cumulative = -2.96981e-21
nonePCG:  Solving for p, Initial residual = 0.9053, Final residual = 9.93599e-07, No Iterations 1087
linear solve p 5731709
time step continuity errors : sum local = 6.90307e-10, global = -4.052e-21, cumulative = -7.02181e-21
ExecutionTime = 51.55 s  ClockTime = 51 s

End

Finalising parallel run
================================================================================
hash: 32cf0d160466d239cc6c6204d62b1903
/*---------------------------------------------------------------------------*\
| =========                 |                                                 |
| \\      /  F ield         | OpenFOAM: The Open Source CFD Toolbox           |
|  \\    /   O peration     | Version:  2112                                  |
|   \\  /    A nd           | Website:  www.openfoam.com                      |
|    \\/     M anipulation  |                                                 |
\*---------------------------------------------------------------------------*/
Build  : d44c8318f0-20220111 OPENFOAM=2112 version=v2112
Arch   : "LSB;label=32;scalar=64"
Exec   : icoFoam -parallel
Date   : Jan 29 2022
Time   : 13:49:57
Host   : hkn0017.localdomain
PID    : 1323176
I/O    : uncollated
Case   : /hkfs/home/project/hk-project-test-fine/eq4036/data/code/ogl_labbook/lidDrivenCavity/resolution/Variation_mesh/200/Variation_matrix_solver/CG_DIC_DefaultOF/Variation_mpiRank/38/base
nProcs : 38
Hosts  :
(
    (hkn0017.localdomain 38)
)
Pstream initialized with:
    floatTransfer      : 0
    nProcsSimpleSum    : 0
    commsType          : nonBlocking
    polling iterations : 0
trapFpe: Floating point exception trapping enabled (FOAM_SIGFPE).
fileModificationChecking : Monitoring run-time modified files using timeStampMaster (fileModificationSkew 5, maxFileModificationPolls 20)
allowSystemOperations : Allowing user-supplied system call operations

// * * * * * * * * * * * * * * * * * * * * * * * * * * * * * * * * * * * * * //
Create time

Create mesh for time = 0


PISO: Operating solver in PISO mode

Reading transportProperties

Reading field p

Reading field U

Reading/calculating face flux field phi


Starting time loop

Time = 0.0005

Courant Number mean: 0 max: 0
DILUPBiCGStab:  Solving for Ux, Initial residual = 1, Final residual = 0.0226536, No Iterations 5
DILUPBiCGStab:  Solving for Uy:  solution singularity
DILUPBiCGStab:  Solving for Uz:  solution singularity
linear solve U 204589
DICPCG:  Solving for p, Initial residual = 1, Final residual = 9.70068e-07, No Iterations 814
linear solve p 7848287
time step continuity errors : sum local = 1.97582e-10, global = 4.14565e-21, cumulative = 4.14565e-21
DICPCG:  Solving for p, Initial residual = 0.821098, Final residual = 9.58375e-07, No Iterations 810
linear solve p 7740013
time step continuity errors : sum local = 2.34713e-10, global = 1.86485e-21, cumulative = 6.0105e-21
ExecutionTime = 16.9 s  ClockTime = 17 s

Time = 0.001

Courant Number mean: 0.0390096 max: 0.865218
DILUPBiCGStab:  Solving for Ux, Initial residual = 0.117655, Final residual = 0.0140556, No Iterations 5
DILUPBiCGStab:  Solving for Uy, Initial residual = 0.506314, Final residual = 0.0544892, No Iterations 5
DILUPBiCGStab:  Solving for Uz, Initial residual = 0.939701, Final residual = 0.107518, No Iterations 5
linear solve U 409858
DICPCG:  Solving for p, Initial residual = 0.905713, Final residual = 9.77393e-07, No Iterations 795
linear solve p 7530346
time step continuity errors : sum local = 5.43478e-10, global = -5.68418e-22, cumulative = 5.44208e-21
DICPCG:  Solving for p, Initial residual = 0.853849, Final residual = 9.57327e-07, No Iterations 794
linear solve p 7543563
time step continuity errors : sum local = 5.43057e-10, global = -3.49151e-21, cumulative = 1.95057e-21
ExecutionTime = 32.65 s  ClockTime = 33 s

Time = 0.0015

Courant Number mean: 0.0611853 max: 1.02198
DILUPBiCGStab:  Solving for Ux, Initial residual = 0.0682933, Final residual = 0.00607511, No Iterations 5
DILUPBiCGStab:  Solving for Uy, Initial residual = 0.35727, Final residual = 0.0230401, No Iterations 5
DILUPBiCGStab:  Solving for Uz, Initial residual = 0.790694, Final residual = 0.072635, No Iterations 5
linear solve U 416202
DICPCG:  Solving for p, Initial residual = 0.939844, Final residual = 9.96438e-07, No Iterations 778
linear solve p 7356824
time step continuity errors : sum local = 6.91412e-10, global = -1.59363e-21, cumulative = 3.56941e-22
DICPCG:  Solving for p, Initial residual = 0.9053, Final residual = 9.96628e-07, No Iterations 778
linear solve p 7390817
time step continuity errors : sum local = 6.85892e-10, global = -1.59164e-21, cumulative = -1.2347e-21
ExecutionTime = 48.08 s  ClockTime = 48 s

End

Finalising parallel run
================================================================================
hash: 2f250c6851daa7e8f13c6ad351434950
/*---------------------------------------------------------------------------*\
| =========                 |                                                 |
| \\      /  F ield         | OpenFOAM: The Open Source CFD Toolbox           |
|  \\    /   O peration     | Version:  2112                                  |
|   \\  /    A nd           | Website:  www.openfoam.com                      |
|    \\/     M anipulation  |                                                 |
\*---------------------------------------------------------------------------*/
Build  : d44c8318f0-20220111 OPENFOAM=2112 version=v2112
Arch   : "LSB;label=32;scalar=64"
Exec   : icoFoam -parallel
Date   : Jan 29 2022
Time   : 13:54:51
Host   : hkn0001.localdomain
PID    : 4192549
I/O    : uncollated
Case   : /hkfs/home/project/hk-project-test-fine/eq4036/data/code/ogl_labbook/lidDrivenCavity/resolution/Variation_mesh/300/Variation_matrix_solver/BiCGStab_DIC_DefaultOF/Variation_mpiRank/38/base
nProcs : 38
Hosts  :
(
    (hkn0001.localdomain 38)
)
Pstream initialized with:
    floatTransfer      : 0
    nProcsSimpleSum    : 0
    commsType          : nonBlocking
    polling iterations : 0
trapFpe: Floating point exception trapping enabled (FOAM_SIGFPE).
fileModificationChecking : Monitoring run-time modified files using timeStampMaster (fileModificationSkew 5, maxFileModificationPolls 20)
allowSystemOperations : Allowing user-supplied system call operations

// * * * * * * * * * * * * * * * * * * * * * * * * * * * * * * * * * * * * * //
Create time

Create mesh for time = 0


PISO: Operating solver in PISO mode

Reading transportProperties

Reading field p

Reading field U

Reading/calculating face flux field phi


Starting time loop

Time = 0.000333333

Courant Number mean: 0 max: 0
DILUPBiCGStab:  Solving for Ux, Initial residual = 1, Final residual = 0.0298974, No Iterations 5
DILUPBiCGStab:  Solving for Uy:  solution singularity
DILUPBiCGStab:  Solving for Uz:  solution singularity
linear solve U 727291
DICPBiCGStab:  Solving for p, Initial residual = 1, Final residual = 7.27634e-07, No Iterations 793
linear solve p 58952077
time step continuity errors : sum local = 9.56086e-11, global = -2.99411e-21, cumulative = -2.99411e-21
DICPBiCGStab:  Solving for p, Initial residual = 0.834876, Final residual = 9.9094e-07, No Iterations 946
linear solve p 69932131
time step continuity errors : sum local = 1.24349e-10, global = -9.40006e-22, cumulative = -3.93411e-21
ExecutionTime = 133.26 s  ClockTime = 135 s

Time = 0.000666667

Courant Number mean: 0.0302531 max: 0.890986
DILUPBiCGStab:  Solving for Ux, Initial residual = 0.106105, Final residual = 0.0195714, No Iterations 5
DILUPBiCGStab:  Solving for Uy, Initial residual = 0.546656, Final residual = 0.0935811, No Iterations 5
DILUPBiCGStab:  Solving for Uz, Initial residual = 0.930981, Final residual = 0.177244, No Iterations 5
linear solve U 1459392
DICPBiCGStab:  Solving for p, Initial residual = 0.932343, Final residual = 1.26591e-07, No Iterations 741
linear solve p 55094039
time step continuity errors : sum local = 4.72179e-11, global = -2.6038e-21, cumulative = -6.53791e-21
DICPBiCGStab:  Solving for p, Initial residual = 0.884356, Final residual = 3.18826e-07, No Iterations 760
linear solve p 56358512
time step continuity errors : sum local = 1.46429e-10, global = -3.67869e-21, cumulative = -1.02166e-20
ExecutionTime = 246.96 s  ClockTime = 249 s

Time = 0.001

Courant Number mean: 0.0484425 max: 1.07233
DILUPBiCGStab:  Solving for Ux, Initial residual = 0.0662994, Final residual = 0.00941285, No Iterations 5
DILUPBiCGStab:  Solving for Uy, Initial residual = 0.415884, Final residual = 0.0431971, No Iterations 5
DILUPBiCGStab:  Solving for Uz, Initial residual = 0.812359, Final residual = 0.119744, No Iterations 5
linear solve U 1457674
DICPBiCGStab:  Solving for p, Initial residual = 0.962033, Final residual = 4.91757e-07, No Iterations 861
linear solve p 63733198
time step continuity errors : sum local = 2.55699e-10, global = -2.26677e-21, cumulative = -1.24834e-20
DICPBiCGStab:  Solving for p, Initial residual = 0.925559, Final residual = 9.63388e-07, No Iterations 493
linear solve p 36442605
time step continuity errors : sum local = 5.8757e-10, global = -3.59201e-21, cumulative = -1.60754e-20
ExecutionTime = 349.46 s  ClockTime = 352 s

End

Finalising parallel run
================================================================================
hash: 439df9b3561104c96aef5ddcd23ac172
/*---------------------------------------------------------------------------*\
| =========                 |                                                 |
| \\      /  F ield         | OpenFOAM: The Open Source CFD Toolbox           |
|  \\    /   O peration     | Version:  2112                                  |
|   \\  /    A nd           | Website:  www.openfoam.com                      |
|    \\/     M anipulation  |                                                 |
\*---------------------------------------------------------------------------*/
Build  : d44c8318f0-20220111 OPENFOAM=2112 version=v2112
Arch   : "LSB;label=32;scalar=64"
Exec   : icoFoam -parallel
Date   : Jan 29 2022
Time   : 14:00:45
Host   : hkn0001.localdomain
PID    : 2056
I/O    : uncollated
Case   : /hkfs/home/project/hk-project-test-fine/eq4036/data/code/ogl_labbook/lidDrivenCavity/resolution/Variation_mesh/300/Variation_matrix_solver/BiCGStab_NoPrecond_DefaultOF/Variation_mpiRank/38/base
nProcs : 38
Hosts  :
(
    (hkn0001.localdomain 38)
)
Pstream initialized with:
    floatTransfer      : 0
    nProcsSimpleSum    : 0
    commsType          : nonBlocking
    polling iterations : 0
trapFpe: Floating point exception trapping enabled (FOAM_SIGFPE).
fileModificationChecking : Monitoring run-time modified files using timeStampMaster (fileModificationSkew 5, maxFileModificationPolls 20)
allowSystemOperations : Allowing user-supplied system call operations

// * * * * * * * * * * * * * * * * * * * * * * * * * * * * * * * * * * * * * //
Create time

Create mesh for time = 0


PISO: Operating solver in PISO mode

Reading transportProperties

Reading field p

Reading field U

Reading/calculating face flux field phi


Starting time loop

Time = 0.000333333

Courant Number mean: 0 max: 0
DILUPBiCGStab:  Solving for Ux, Initial residual = 1, Final residual = 0.0298974, No Iterations 5
DILUPBiCGStab:  Solving for Uy:  solution singularity
DILUPBiCGStab:  Solving for Uz:  solution singularity
linear solve U 729007
nonePBiCGStab:  Solving for p, Initial residual = 1, Final residual = 7.14749e-07, No Iterations 2381
linear solve p 108967228
time step continuity errors : sum local = 1.33034e-10, global = 2.91352e-21, cumulative = 2.91352e-21
nonePBiCGStab:  Solving for p, Initial residual = 0.834877, Final residual = 8.16887e-07, No Iterations 2177
linear solve p 99017954
time step continuity errors : sum local = 1.0095e-10, global = -1.06309e-21, cumulative = 1.85043e-21
ExecutionTime = 212.02 s  ClockTime = 213 s

Time = 0.000666667

Courant Number mean: 0.0302531 max: 0.890986
DILUPBiCGStab:  Solving for Ux, Initial residual = 0.106106, Final residual = 0.0195717, No Iterations 5
DILUPBiCGStab:  Solving for Uy, Initial residual = 0.546655, Final residual = 0.0935808, No Iterations 5
DILUPBiCGStab:  Solving for Uz, Initial residual = 0.931004, Final residual = 0.177275, No Iterations 5
linear solve U 1451888
nonePBiCGStab:  Solving for p, Initial residual = 0.932343, Final residual = 6.93641e-07, No Iterations 2923
linear solve p 131938629
time step continuity errors : sum local = 3.95561e-10, global = -3.23204e-21, cumulative = -1.38161e-21
nonePBiCGStab:  Solving for p, Initial residual = 0.884355, Final residual = 5.80348e-07, No Iterations 2153
linear solve p 97079987
time step continuity errors : sum local = 4.03681e-10, global = -3.1525e-21, cumulative = -4.5341e-21
ExecutionTime = 442.98 s  ClockTime = 445 s

Time = 0.001

Courant Number mean: 0.0484425 max: 1.07233
DILUPBiCGStab:  Solving for Ux, Initial residual = 0.066301, Final residual = 0.00941338, No Iterations 5
DILUPBiCGStab:  Solving for Uy, Initial residual = 0.415884, Final residual = 0.0431963, No Iterations 5
DILUPBiCGStab:  Solving for Uz, Initial residual = 0.812397, Final residual = 0.119773, No Iterations 5
linear solve U 1456839
nonePBiCGStab:  Solving for p, Initial residual = 0.962031, Final residual = 9.92634e-07, No Iterations 1317
linear solve p 59728438
time step continuity errors : sum local = 7.52218e-10, global = -4.96267e-21, cumulative = -9.49677e-21
nonePBiCGStab:  Solving for p, Initial residual = 0.925558, Final residual = 9.9098e-07, No Iterations 1270
linear solve p 57459931
time step continuity errors : sum local = 7.31428e-10, global = -2.97539e-21, cumulative = -1.24722e-20
ExecutionTime = 562.38 s  ClockTime = 565 s

End

Finalising parallel run
================================================================================
hash: 1a63c0ae9576e25afa5f901504b1f1f2
/*---------------------------------------------------------------------------*\
| =========                 |                                                 |
| \\      /  F ield         | OpenFOAM: The Open Source CFD Toolbox           |
|  \\    /   O peration     | Version:  2112                                  |
|   \\  /    A nd           | Website:  www.openfoam.com                      |
|    \\/     M anipulation  |                                                 |
\*---------------------------------------------------------------------------*/
Build  : d44c8318f0-20220111 OPENFOAM=2112 version=v2112
Arch   : "LSB;label=32;scalar=64"
Exec   : icoFoam -parallel
Date   : Jan 29 2022
Time   : 14:10:12
Host   : hkn0001.localdomain
PID    : 6689
I/O    : uncollated
Case   : /hkfs/home/project/hk-project-test-fine/eq4036/data/code/ogl_labbook/lidDrivenCavity/resolution/Variation_mesh/300/Variation_matrix_solver/CG_NoPrecond_DefaultOF/Variation_mpiRank/38/base
nProcs : 38
Hosts  :
(
    (hkn0001.localdomain 38)
)
Pstream initialized with:
    floatTransfer      : 0
    nProcsSimpleSum    : 0
    commsType          : nonBlocking
    polling iterations : 0
trapFpe: Floating point exception trapping enabled (FOAM_SIGFPE).
fileModificationChecking : Monitoring run-time modified files using timeStampMaster (fileModificationSkew 5, maxFileModificationPolls 20)
allowSystemOperations : Allowing user-supplied system call operations

// * * * * * * * * * * * * * * * * * * * * * * * * * * * * * * * * * * * * * //
Create time

Create mesh for time = 0


PISO: Operating solver in PISO mode

Reading transportProperties

Reading field p

Reading field U

Reading/calculating face flux field phi


Starting time loop

Time = 0.000333333

Courant Number mean: 0 max: 0
DILUPBiCGStab:  Solving for Ux, Initial residual = 1, Final residual = 0.0298974, No Iterations 5
DILUPBiCGStab:  Solving for Uy:  solution singularity
DILUPBiCGStab:  Solving for Uz:  solution singularity
linear solve U 726999
nonePCG:  Solving for p, Initial residual = 1, Final residual = 9.94492e-07, No Iterations 2643
linear solve p 59417449
time step continuity errors : sum local = 1.02462e-10, global = -3.01803e-21, cumulative = -3.01803e-21
nonePCG:  Solving for p, Initial residual = 0.834876, Final residual = 9.96175e-07, No Iterations 2632
linear solve p 58737681
time step continuity errors : sum local = 1.2174e-10, global = -3.09819e-21, cumulative = -6.11621e-21
ExecutionTime = 122.5 s  ClockTime = 123 s

Time = 0.000666667

Courant Number mean: 0.0302531 max: 0.890986
DILUPBiCGStab:  Solving for Ux, Initial residual = 0.106104, Final residual = 0.0195712, No Iterations 5
DILUPBiCGStab:  Solving for Uy, Initial residual = 0.546657, Final residual = 0.0935813, No Iterations 5
DILUPBiCGStab:  Solving for Uz, Initial residual = 0.930974, Final residual = 0.17723, No Iterations 5
linear solve U 1457424
nonePCG:  Solving for p, Initial residual = 0.932343, Final residual = 9.77425e-07, No Iterations 2603
linear solve p 57961978
time step continuity errors : sum local = 3.39399e-10, global = -1.20461e-21, cumulative = -7.32082e-21
nonePCG:  Solving for p, Initial residual = 0.884356, Final residual = 9.84518e-07, No Iterations 2600
linear solve p 58914772
time step continuity errors : sum local = 3.48669e-10, global = -2.06623e-21, cumulative = -9.38705e-21
ExecutionTime = 241.61 s  ClockTime = 242 s

Time = 0.001

Courant Number mean: 0.0484425 max: 1.07232
DILUPBiCGStab:  Solving for Ux, Initial residual = 0.0663, Final residual = 0.00941319, No Iterations 5
DILUPBiCGStab:  Solving for Uy, Initial residual = 0.415885, Final residual = 0.0431963, No Iterations 5
DILUPBiCGStab:  Solving for Uz, Initial residual = 0.81238, Final residual = 0.119766, No Iterations 5
linear solve U 1449428
nonePCG:  Solving for p, Initial residual = 0.962032, Final residual = 9.81254e-07, No Iterations 2618
linear solve p 59555671
time step continuity errors : sum local = 4.97929e-10, global = -5.30334e-22, cumulative = -9.91739e-21
nonePCG:  Solving for p, Initial residual = 0.925561, Final residual = 9.8936e-07, No Iterations 2616
linear solve p 57928812
time step continuity errors : sum local = 5.01702e-10, global = -3.48485e-21, cumulative = -1.34022e-20
ExecutionTime = 361.34 s  ClockTime = 362 s

End

Finalising parallel run
================================================================================
hash: 24544f3645e4a198b10518588bac70ec
/*---------------------------------------------------------------------------*\
| =========                 |                                                 |
| \\      /  F ield         | OpenFOAM: The Open Source CFD Toolbox           |
|  \\    /   O peration     | Version:  2112                                  |
|   \\  /    A nd           | Website:  www.openfoam.com                      |
|    \\/     M anipulation  |                                                 |
\*---------------------------------------------------------------------------*/
Build  : d44c8318f0-20220111 OPENFOAM=2112 version=v2112
Arch   : "LSB;label=32;scalar=64"
Exec   : icoFoam -parallel
Date   : Jan 29 2022
Time   : 14:16:17
Host   : hkn0001.localdomain
PID    : 9689
I/O    : uncollated
Case   : /hkfs/home/project/hk-project-test-fine/eq4036/data/code/ogl_labbook/lidDrivenCavity/resolution/Variation_mesh/300/Variation_matrix_solver/CG_DIC_DefaultOF/Variation_mpiRank/38/base
nProcs : 38
Hosts  :
(
    (hkn0001.localdomain 38)
)
Pstream initialized with:
    floatTransfer      : 0
    nProcsSimpleSum    : 0
    commsType          : nonBlocking
    polling iterations : 0
trapFpe: Floating point exception trapping enabled (FOAM_SIGFPE).
fileModificationChecking : Monitoring run-time modified files using timeStampMaster (fileModificationSkew 5, maxFileModificationPolls 20)
allowSystemOperations : Allowing user-supplied system call operations

// * * * * * * * * * * * * * * * * * * * * * * * * * * * * * * * * * * * * * //
Create time

Create mesh for time = 0


PISO: Operating solver in PISO mode

Reading transportProperties

Reading field p

Reading field U

Reading/calculating face flux field phi


Starting time loop

Time = 0.000333333

Courant Number mean: 0 max: 0
DILUPBiCGStab:  Solving for Ux, Initial residual = 1, Final residual = 0.0298974, No Iterations 5
DILUPBiCGStab:  Solving for Uy:  solution singularity
DILUPBiCGStab:  Solving for Uz:  solution singularity
linear solve U 728516
DICPCG:  Solving for p, Initial residual = 1, Final residual = 9.67431e-07, No Iterations 1205
linear solve p 44452696
time step continuity errors : sum local = 9.96734e-11, global = -1.63246e-21, cumulative = -1.63246e-21
DICPCG:  Solving for p, Initial residual = 0.834876, Final residual = 9.98427e-07, No Iterations 1199
linear solve p 44001679
time step continuity errors : sum local = 1.22015e-10, global = -5.1159e-22, cumulative = -2.14405e-21
ExecutionTime = 93.12 s  ClockTime = 93 s

Time = 0.000666667

Courant Number mean: 0.0302531 max: 0.890986
DILUPBiCGStab:  Solving for Ux, Initial residual = 0.106104, Final residual = 0.0195712, No Iterations 5
DILUPBiCGStab:  Solving for Uy, Initial residual = 0.546657, Final residual = 0.0935813, No Iterations 5
DILUPBiCGStab:  Solving for Uz, Initial residual = 0.930974, Final residual = 0.17723, No Iterations 5
linear solve U 1450753
DICPCG:  Solving for p, Initial residual = 0.932343, Final residual = 9.98461e-07, No Iterations 1182
linear solve p 43592798
time step continuity errors : sum local = 3.46705e-10, global = -1.88508e-21, cumulative = -4.02912e-21
DICPCG:  Solving for p, Initial residual = 0.884356, Final residual = 9.93451e-07, No Iterations 1179
linear solve p 43002722
time step continuity errors : sum local = 3.51834e-10, global = -3.66415e-21, cumulative = -7.69327e-21
ExecutionTime = 182.03 s  ClockTime = 183 s

Time = 0.001

Courant Number mean: 0.0484425 max: 1.07232
DILUPBiCGStab:  Solving for Ux, Initial residual = 0.0663001, Final residual = 0.00941319, No Iterations 5
DILUPBiCGStab:  Solving for Uy, Initial residual = 0.415885, Final residual = 0.0431963, No Iterations 5
DILUPBiCGStab:  Solving for Uz, Initial residual = 0.81238, Final residual = 0.119767, No Iterations 5
linear solve U 1457259
DICPCG:  Solving for p, Initial residual = 0.962032, Final residual = 9.97657e-07, No Iterations 1098
linear solve p 40247145
time step continuity errors : sum local = 5.06271e-10, global = -2.92934e-21, cumulative = -1.06226e-20
DICPCG:  Solving for p, Initial residual = 0.925561, Final residual = 9.89155e-07, No Iterations 1097
linear solve p 40281045
time step continuity errors : sum local = 5.0162e-10, global = -4.12275e-21, cumulative = -1.47454e-20
ExecutionTime = 264.9 s  ClockTime = 266 s

End

Finalising parallel run
================================================================================
hash: 6a5273a9bd87d5f2ad289ab12767b49e
/*---------------------------------------------------------------------------*\
| =========                 |                                                 |
| \\      /  F ield         | OpenFOAM: The Open Source CFD Toolbox           |
|  \\    /   O peration     | Version:  2112                                  |
|   \\  /    A nd           | Website:  www.openfoam.com                      |
|    \\/     M anipulation  |                                                 |
\*---------------------------------------------------------------------------*/
Build  : d44c8318f0-20220111 OPENFOAM=2112 version=v2112
Arch   : "LSB;label=32;scalar=64"
Exec   : icoFoam -parallel
Date   : Jan 29 2022
Time   : 14:12:39
Host   : hkn0003.localdomain
PID    : 1842556
I/O    : uncollated
Case   : /hkfs/home/project/hk-project-test-fine/eq4036/data/code/ogl_labbook/lidDrivenCavity/resolution/Variation_mesh/400/Variation_matrix_solver/BiCGStab_DIC_DefaultOF/Variation_mpiRank/38/base
nProcs : 38
Hosts  :
(
    (hkn0003.localdomain 38)
)
Pstream initialized with:
    floatTransfer      : 0
    nProcsSimpleSum    : 0
    commsType          : nonBlocking
    polling iterations : 0
trapFpe: Floating point exception trapping enabled (FOAM_SIGFPE).
fileModificationChecking : Monitoring run-time modified files using timeStampMaster (fileModificationSkew 5, maxFileModificationPolls 20)
allowSystemOperations : Allowing user-supplied system call operations

// * * * * * * * * * * * * * * * * * * * * * * * * * * * * * * * * * * * * * //
Create time

Create mesh for time = 0


PISO: Operating solver in PISO mode

Reading transportProperties

Reading field p

Reading field U

Reading/calculating face flux field phi


Starting time loop

Time = 0.00025

Courant Number mean: 0 max: 0
DILUPBiCGStab:  Solving for Ux, Initial residual = 1, Final residual = 0.0346145, No Iterations 5
DILUPBiCGStab:  Solving for Uy:  solution singularity
DILUPBiCGStab:  Solving for Uz:  solution singularity
linear solve U 1791480
DICPBiCGStab:  Solving for p, Initial residual = 1, Final residual = 6.22509e-07, No Iterations 1122
linear solve p 199842304
time step continuity errors : sum local = 4.01916e-11, global = 1.17157e-21, cumulative = 1.17157e-21
DICPBiCGStab:  Solving for p, Initial residual = 0.842936, Final residual = 9.40467e-07, No Iterations 1056
linear solve p 188696823
time step continuity errors : sum local = 7.18508e-11, global = 4.04165e-22, cumulative = 1.57573e-21
ExecutionTime = 398.65 s  ClockTime = 401 s

Time = 0.0005

Courant Number mean: 0.0247294 max: 0.905786
DILUPBiCGStab:  Solving for Ux, Initial residual = 0.0982899, Final residual = 0.0231994, No Iterations 5
DILUPBiCGStab:  Solving for Uy, Initial residual = 0.57486, Final residual = 0.131424, No Iterations 5
DILUPBiCGStab:  Solving for Uz, Initial residual = 0.906773, Final residual = 0.232213, No Iterations 5
linear solve U 3646775
DICPBiCGStab:  Solving for p, Initial residual = 0.944085, Final residual = 4.35607e-07, No Iterations 1317
linear solve p 234565048
time step continuity errors : sum local = 1.05187e-10, global = -2.1824e-22, cumulative = 1.35749e-21
DICPBiCGStab:  Solving for p, Initial residual = 0.89831, Final residual = 3.05729e-07, No Iterations 1018
linear solve p 181346629
time step continuity errors : sum local = 7.63772e-11, global = 4.13816e-22, cumulative = 1.77131e-21
ExecutionTime = 819.97 s  ClockTime = 823 s

Time = 0.00075

Courant Number mean: 0.0402108 max: 1.11013
DILUPBiCGStab:  Solving for Ux, Initial residual = 0.0632432, Final residual = 0.0122981, No Iterations 5
DILUPBiCGStab:  Solving for Uy, Initial residual = 0.446379, Final residual = 0.0632784, No Iterations 5
DILUPBiCGStab:  Solving for Uz, Initial residual = 0.814612, Final residual = 0.158461, No Iterations 5
linear solve U 3650289
DICPBiCGStab:  Solving for p, Initial residual = 0.971059, Final residual = 7.70584e-07, No Iterations 606
linear solve p 107816134
time step continuity errors : sum local = 3.96892e-10, global = 7.57568e-22, cumulative = 2.52888e-21
DICPBiCGStab:  Solving for p, Initial residual = 0.933358, Final residual = 7.24372e-07, No Iterations 619
linear solve p 110502898
time step continuity errors : sum local = 3.0456e-10, global = 9.89825e-22, cumulative = 3.5187e-21
ExecutionTime = 1044.22 s  ClockTime = 1048 s

End

Finalising parallel run
================================================================================
hash: 5409a06d19b53b659c6ac119f6ad0d23
/*---------------------------------------------------------------------------*\
| =========                 |                                                 |
| \\      /  F ield         | OpenFOAM: The Open Source CFD Toolbox           |
|  \\    /   O peration     | Version:  2112                                  |
|   \\  /    A nd           | Website:  www.openfoam.com                      |
|    \\/     M anipulation  |                                                 |
\*---------------------------------------------------------------------------*/
Build  : d44c8318f0-20220111 OPENFOAM=2112 version=v2112
Arch   : "LSB;label=32;scalar=64"
Exec   : icoFoam -parallel
Date   : Jan 29 2022
Time   : 14:30:10
Host   : hkn0003.localdomain
PID    : 1844385
I/O    : uncollated
Case   : /hkfs/home/project/hk-project-test-fine/eq4036/data/code/ogl_labbook/lidDrivenCavity/resolution/Variation_mesh/400/Variation_matrix_solver/BiCGStab_NoPrecond_DefaultOF/Variation_mpiRank/38/base
nProcs : 38
Hosts  :
(
    (hkn0003.localdomain 38)
)
Pstream initialized with:
    floatTransfer      : 0
    nProcsSimpleSum    : 0
    commsType          : nonBlocking
    polling iterations : 0
trapFpe: Floating point exception trapping enabled (FOAM_SIGFPE).
fileModificationChecking : Monitoring run-time modified files using timeStampMaster (fileModificationSkew 5, maxFileModificationPolls 20)
allowSystemOperations : Allowing user-supplied system call operations

// * * * * * * * * * * * * * * * * * * * * * * * * * * * * * * * * * * * * * //
Create time

Create mesh for time = 0


PISO: Operating solver in PISO mode

Reading transportProperties

Reading field p

Reading field U

Reading/calculating face flux field phi


Starting time loop

Time = 0.00025

Courant Number mean: 0 max: 0
DILUPBiCGStab:  Solving for Ux, Initial residual = 1, Final residual = 0.0346145, No Iterations 5
DILUPBiCGStab:  Solving for Uy:  solution singularity
DILUPBiCGStab:  Solving for Uz:  solution singularity
linear solve U 1791522
nonePBiCGStab:  Solving for p, Initial residual = 1, Final residual = 7.01123e-07, No Iterations 5484
linear solve p 599182464
time step continuity errors : sum local = 5.91232e-11, global = 1.1949e-21, cumulative = 1.1949e-21
nonePBiCGStab:  Solving for p, Initial residual = 0.842935, Final residual = 7.40102e-07, No Iterations 4738
linear solve p 518491801
time step continuity errors : sum local = 9.02757e-11, global = 1.57746e-22, cumulative = 1.35265e-21
ExecutionTime = 1125.46 s  ClockTime = 1129 s

Time = 0.0005

Courant Number mean: 0.0247294 max: 0.905786
DILUPBiCGStab:  Solving for Ux, Initial residual = 0.098288, Final residual = 0.0231986, No Iterations 5
DILUPBiCGStab:  Solving for Uy, Initial residual = 0.574865, Final residual = 0.131427, No Iterations 5
DILUPBiCGStab:  Solving for Uz, Initial residual = 0.906748, Final residual = 0.232169, No Iterations 5
linear solve U 3645866
nonePBiCGStab:  Solving for p, Initial residual = 0.944085, Final residual = 6.99895e-07, No Iterations 4224
linear solve p 459144420
time step continuity errors : sum local = 3.21529e-10, global = 1.08574e-21, cumulative = 2.43838e-21
nonePBiCGStab:  Solving for p, Initial residual = 0.89831, Final residual = 7.70973e-07, No Iterations 3180
linear solve p 347401921
time step continuity errors : sum local = 3.46486e-10, global = -3.55171e-22, cumulative = 2.08321e-21
ExecutionTime = 1936.12 s  ClockTime = 1942 s

Time = 0.00075

Courant Number mean: 0.0402109 max: 1.11013
DILUPBiCGStab:  Solving for Ux, Initial residual = 0.0632427, Final residual = 0.0122983, No Iterations 5
DILUPBiCGStab:  Solving for Uy, Initial residual = 0.446375, Final residual = 0.0632729, No Iterations 5
DILUPBiCGStab:  Solving for Uz, Initial residual = 0.814627, Final residual = 0.158476, No Iterations 5
linear solve U 3698199
nonePBiCGStab:  Solving for p, Initial residual = 0.971058, Final residual = 8.6725e-07, No Iterations 1571
linear solve p 171087982
time step continuity errors : sum local = 3.58229e-10, global = -9.0122e-22, cumulative = 1.18199e-21
nonePBiCGStab:  Solving for p, Initial residual = 0.933356, Final residual = 7.84079e-07, No Iterations 1641
linear solve p 178957785
time step continuity errors : sum local = 4.23718e-10, global = 7.84464e-22, cumulative = 1.96646e-21
ExecutionTime = 2291.68 s  ClockTime = 2299 s

End

Finalising parallel run
================================================================================
hash: 0f500d22865d643d09d54cad608c4af3
/*---------------------------------------------------------------------------*\
| =========                 |                                                 |
| \\      /  F ield         | OpenFOAM: The Open Source CFD Toolbox           |
|  \\    /   O peration     | Version:  2112                                  |
|   \\  /    A nd           | Website:  www.openfoam.com                      |
|    \\/     M anipulation  |                                                 |
\*---------------------------------------------------------------------------*/
Build  : d44c8318f0-20220111 OPENFOAM=2112 version=v2112
Arch   : "LSB;label=32;scalar=64"
Exec   : icoFoam -parallel
Date   : Jan 29 2022
Time   : 15:08:31
Host   : hkn0003.localdomain
PID    : 1847538
I/O    : uncollated
Case   : /hkfs/home/project/hk-project-test-fine/eq4036/data/code/ogl_labbook/lidDrivenCavity/resolution/Variation_mesh/400/Variation_matrix_solver/CG_NoPrecond_DefaultOF/Variation_mpiRank/38/base
nProcs : 38
Hosts  :
(
    (hkn0003.localdomain 38)
)
Pstream initialized with:
    floatTransfer      : 0
    nProcsSimpleSum    : 0
    commsType          : nonBlocking
    polling iterations : 0
trapFpe: Floating point exception trapping enabled (FOAM_SIGFPE).
fileModificationChecking : Monitoring run-time modified files using timeStampMaster (fileModificationSkew 5, maxFileModificationPolls 20)
allowSystemOperations : Allowing user-supplied system call operations

// * * * * * * * * * * * * * * * * * * * * * * * * * * * * * * * * * * * * * //
Create time

Create mesh for time = 0


PISO: Operating solver in PISO mode

Reading transportProperties

Reading field p

Reading field U

Reading/calculating face flux field phi


Starting time loop

Time = 0.00025

Courant Number mean: 0 max: 0
DILUPBiCGStab:  Solving for Ux, Initial residual = 1, Final residual = 0.0346145, No Iterations 5
DILUPBiCGStab:  Solving for Uy:  solution singularity
DILUPBiCGStab:  Solving for Uz:  solution singularity
linear solve U 1792256
nonePCG:  Solving for p, Initial residual = 1, Final residual = 9.8753e-07, No Iterations 3566
linear solve p 201011333
time step continuity errors : sum local = 6.18132e-11, global = 4.26211e-22, cumulative = 4.26211e-22
nonePCG:  Solving for p, Initial residual = 0.842936, Final residual = 9.95253e-07, No Iterations 3538
linear solve p 198814758
time step continuity errors : sum local = 7.32683e-11, global = -9.638e-22, cumulative = -5.37589e-22
ExecutionTime = 409.71 s  ClockTime = 412 s

Time = 0.0005

Courant Number mean: 0.0247294 max: 0.905786
DILUPBiCGStab:  Solving for Ux, Initial residual = 0.09829, Final residual = 0.0231995, No Iterations 5
DILUPBiCGStab:  Solving for Uy, Initial residual = 0.57486, Final residual = 0.131423, No Iterations 5
DILUPBiCGStab:  Solving for Uz, Initial residual = 0.906781, Final residual = 0.232215, No Iterations 5
linear solve U 3635089
nonePCG:  Solving for p, Initial residual = 0.944085, Final residual = 9.88498e-07, No Iterations 3534
linear solve p 198187232
time step continuity errors : sum local = 2.34399e-10, global = -1.24757e-21, cumulative = -1.78515e-21
nonePCG:  Solving for p, Initial residual = 0.89831, Final residual = 9.93608e-07, No Iterations 3529
linear solve p 198150127
time step continuity errors : sum local = 2.40215e-10, global = -1.79289e-22, cumulative = -1.96444e-21
ExecutionTime = 811.47 s  ClockTime = 815 s

Time = 0.00075

Courant Number mean: 0.0402108 max: 1.11013
DILUPBiCGStab:  Solving for Ux, Initial residual = 0.0632432, Final residual = 0.0122981, No Iterations 5
DILUPBiCGStab:  Solving for Uy, Initial residual = 0.44638, Final residual = 0.0632787, No Iterations 5
DILUPBiCGStab:  Solving for Uz, Initial residual = 0.814616, Final residual = 0.158462, No Iterations 5
linear solve U 3645982
nonePCG:  Solving for p, Initial residual = 0.971059, Final residual = 9.93597e-07, No Iterations 3533
linear solve p 199904427
time step continuity errors : sum local = 3.80825e-10, global = -1.14362e-21, cumulative = -3.10806e-21
nonePCG:  Solving for p, Initial residual = 0.933357, Final residual = 9.92871e-07, No Iterations 3531
linear solve p 198731233
time step continuity errors : sum local = 3.81818e-10, global = 1.35159e-22, cumulative = -2.9729e-21
ExecutionTime = 1215.65 s  ClockTime = 1220 s

End

Finalising parallel run
================================================================================
hash: 5dc61437d9ce942177766ae77b7a923a
/*---------------------------------------------------------------------------*\
| =========                 |                                                 |
| \\      /  F ield         | OpenFOAM: The Open Source CFD Toolbox           |
|  \\    /   O peration     | Version:  2112                                  |
|   \\  /    A nd           | Website:  www.openfoam.com                      |
|    \\/     M anipulation  |                                                 |
\*---------------------------------------------------------------------------*/
Build  : d44c8318f0-20220111 OPENFOAM=2112 version=v2112
Arch   : "LSB;label=32;scalar=64"
Exec   : icoFoam -parallel
Date   : Jan 29 2022
Time   : 15:28:53
Host   : hkn0003.localdomain
PID    : 1849561
I/O    : uncollated
Case   : /hkfs/home/project/hk-project-test-fine/eq4036/data/code/ogl_labbook/lidDrivenCavity/resolution/Variation_mesh/400/Variation_matrix_solver/CG_DIC_DefaultOF/Variation_mpiRank/38/base
nProcs : 38
Hosts  :
(
    (hkn0003.localdomain 38)
)
Pstream initialized with:
    floatTransfer      : 0
    nProcsSimpleSum    : 0
    commsType          : nonBlocking
    polling iterations : 0
trapFpe: Floating point exception trapping enabled (FOAM_SIGFPE).
fileModificationChecking : Monitoring run-time modified files using timeStampMaster (fileModificationSkew 5, maxFileModificationPolls 20)
allowSystemOperations : Allowing user-supplied system call operations

// * * * * * * * * * * * * * * * * * * * * * * * * * * * * * * * * * * * * * //
Create time

Create mesh for time = 0


PISO: Operating solver in PISO mode

Reading transportProperties

Reading field p

Reading field U

Reading/calculating face flux field phi


Starting time loop

Time = 0.00025

Courant Number mean: 0 max: 0
DILUPBiCGStab:  Solving for Ux, Initial residual = 1, Final residual = 0.0346145, No Iterations 5
DILUPBiCGStab:  Solving for Uy:  solution singularity
DILUPBiCGStab:  Solving for Uz:  solution singularity
linear solve U 1792068
DICPCG:  Solving for p, Initial residual = 1, Final residual = 9.9775e-07, No Iterations 1610
linear solve p 147303341
time step continuity errors : sum local = 6.24531e-11, global = 1.4953e-21, cumulative = 1.4953e-21
DICPCG:  Solving for p, Initial residual = 0.842936, Final residual = 9.9851e-07, No Iterations 1605
linear solve p 147065326
time step continuity errors : sum local = 7.35085e-11, global = -2.82069e-22, cumulative = 1.21323e-21
ExecutionTime = 304.52 s  ClockTime = 306 s

Time = 0.0005

Courant Number mean: 0.0247294 max: 0.905786
DILUPBiCGStab:  Solving for Ux, Initial residual = 0.09829, Final residual = 0.0231995, No Iterations 5
DILUPBiCGStab:  Solving for Uy, Initial residual = 0.57486, Final residual = 0.131423, No Iterations 5
DILUPBiCGStab:  Solving for Uz, Initial residual = 0.906782, Final residual = 0.232217, No Iterations 5
linear solve U 3644395
DICPCG:  Solving for p, Initial residual = 0.944085, Final residual = 9.87787e-07, No Iterations 1565
linear solve p 142478442
time step continuity errors : sum local = 2.34235e-10, global = -8.4934e-22, cumulative = 3.63889e-22
DICPCG:  Solving for p, Initial residual = 0.89831, Final residual = 9.89461e-07, No Iterations 1562
linear solve p 142553989
time step continuity errors : sum local = 2.39217e-10, global = -1.19441e-22, cumulative = 2.44447e-22
ExecutionTime = 595.3 s  ClockTime = 598 s

Time = 0.00075

Courant Number mean: 0.0402108 max: 1.11013
DILUPBiCGStab:  Solving for Ux, Initial residual = 0.0632432, Final residual = 0.0122981, No Iterations 5
DILUPBiCGStab:  Solving for Uy, Initial residual = 0.44638, Final residual = 0.0632787, No Iterations 5
DILUPBiCGStab:  Solving for Uz, Initial residual = 0.814612, Final residual = 0.158458, No Iterations 5
linear solve U 3631963
DICPCG:  Solving for p, Initial residual = 0.971059, Final residual = 9.91903e-07, No Iterations 1505
linear solve p 137026671
time step continuity errors : sum local = 3.80176e-10, global = 1.34005e-22, cumulative = 3.78452e-22
DICPCG:  Solving for p, Initial residual = 0.933357, Final residual = 9.8491e-07, No Iterations 1504
linear solve p 138198216
time step continuity errors : sum local = 3.78757e-10, global = 9.82747e-22, cumulative = 1.3612e-21
ExecutionTime = 876.27 s  ClockTime = 880 s

End

Finalising parallel run
================================================================================
