hash: fdc724a6e1e61267835b894cf3b900b3
/*---------------------------------------------------------------------------*\
| =========                 |                                                 |
| \\      /  F ield         | OpenFOAM: The Open Source CFD Toolbox           |
|  \\    /   O peration     | Version:  v2106                                 |
|   \\  /    A nd           | Website:  www.openfoam.com                      |
|    \\/     M anipulation  |                                                 |
\*---------------------------------------------------------------------------*/
Build  : f815a12bba-20210902 OPENFOAM=2106
Arch   : "LSB;label=32;scalar=64"
Exec   : icoFoam -parallel
Date   : Jan 30 2022
Time   : 13:00:46
Host   : nla-gpu2.ianm.kit.edu
PID    : 1548924
I/O    : uncollated
Case   : /home/greole/data/code/ogl_labbook/lidDrivenCavity3D/resolution/Variation_mesh/300/Variation_matrix_solver/BiCGStab_NoPrecond_DefaultOF/Variation_mpiRank/32/base
nProcs : 32
Hosts  :
(
    (nla-gpu2.ianm.kit.edu 32)
)
Pstream initialized with:
    floatTransfer      : 0
    nProcsSimpleSum    : 0
    commsType          : nonBlocking
    polling iterations : 0
trapFpe: Floating point exception trapping enabled (FOAM_SIGFPE).
fileModificationChecking : Monitoring run-time modified files using timeStampMaster (fileModificationSkew 5, maxFileModificationPolls 20)
allowSystemOperations : Allowing user-supplied system call operations

// * * * * * * * * * * * * * * * * * * * * * * * * * * * * * * * * * * * * * //
Create time

Create mesh for time = 0


PISO: Operating solver in PISO mode

Reading transportProperties

Reading field p

Reading field U

Reading/calculating face flux field phi


Starting time loop

Time = 0.000333333

Courant Number mean: 0 max: 0
DILUPBiCGStab:  Solving for Ux, Initial residual = 1, Final residual = 0.0298813, No Iterations 5
DILUPBiCGStab:  Solving for Uy:  solution singularity
DILUPBiCGStab:  Solving for Uz:  solution singularity
linear solve U 773426
nonePBiCGStab:  Solving for p, Initial residual = 1, Final residual = 7.15953e-07, No Iterations 2172
linear solve p 105011767
time step continuity errors : sum local = 1.45315e-10, global = 5.56056e-21, cumulative = 5.56056e-21
nonePBiCGStab:  Solving for p, Initial residual = 0.83452, Final residual = 9.34718e-07, No Iterations 2192
linear solve p 106129199
time step continuity errors : sum local = 2.27435e-10, global = 7.73414e-23, cumulative = 5.6379e-21
ExecutionTime = 216.72 s  ClockTime = 217 s

Time = 0.000666667

Courant Number mean: 0.0302587 max: 0.889595
DILUPBiCGStab:  Solving for Ux, Initial residual = 0.106112, Final residual = 0.0194117, No Iterations 5
DILUPBiCGStab:  Solving for Uy, Initial residual = 0.546694, Final residual = 0.092791, No Iterations 5
DILUPBiCGStab:  Solving for Uz, Initial residual = 0.926673, Final residual = 0.1765, No Iterations 5
linear solve U 1548626
nonePBiCGStab:  Solving for p, Initial residual = 0.931849, Final residual = 9.78963e-07, No Iterations 2044
linear solve p 98869458
time step continuity errors : sum local = 5.0737e-10, global = -3.33361e-21, cumulative = 2.3043e-21
nonePBiCGStab:  Solving for p, Initial residual = 0.883994, Final residual = 7.7579e-07, No Iterations 2920
linear solve p 140948867
time step continuity errors : sum local = 5.38538e-10, global = -3.61237e-21, cumulative = -1.30807e-21
ExecutionTime = 458.13 s  ClockTime = 460 s

Time = 0.001

Courant Number mean: 0.0484605 max: 1.07236
DILUPBiCGStab:  Solving for Ux, Initial residual = 0.0663726, Final residual = 0.00943433, No Iterations 5
DILUPBiCGStab:  Solving for Uy, Initial residual = 0.416342, Final residual = 0.0431638, No Iterations 5
DILUPBiCGStab:  Solving for Uz, Initial residual = 0.81931, Final residual = 0.121464, No Iterations 5
linear solve U 1546135
nonePBiCGStab:  Solving for p, Initial residual = 0.96199, Final residual = 9.89722e-07, No Iterations 1012
linear solve p 48939473
time step continuity errors : sum local = 5.70731e-10, global = -4.73158e-21, cumulative = -6.03965e-21
nonePBiCGStab:  Solving for p, Initial residual = 0.925588, Final residual = 9.97643e-07, No Iterations 1224
linear solve p 59131038
time step continuity errors : sum local = 8.41214e-10, global = -1.80239e-21, cumulative = -7.84204e-21
ExecutionTime = 568.42 s  ClockTime = 571 s

End

Finalising parallel run
================================================================================
hash: f3b04f7b35b464fc21d400d3041ae59b
/*---------------------------------------------------------------------------*\
| =========                 |                                                 |
| \\      /  F ield         | OpenFOAM: The Open Source CFD Toolbox           |
|  \\    /   O peration     | Version:  v2106                                 |
|   \\  /    A nd           | Website:  www.openfoam.com                      |
|    \\/     M anipulation  |                                                 |
\*---------------------------------------------------------------------------*/
Build  : f815a12bba-20210902 OPENFOAM=2106
Arch   : "LSB;label=32;scalar=64"
Exec   : icoFoam -parallel
Date   : Jan 30 2022
Time   : 13:10:19
Host   : nla-gpu2.ianm.kit.edu
PID    : 1554378
I/O    : uncollated
Case   : /home/greole/data/code/ogl_labbook/lidDrivenCavity3D/resolution/Variation_mesh/300/Variation_matrix_solver/CG_NoPrecond_DefaultOF/Variation_mpiRank/32/base
nProcs : 32
Hosts  :
(
    (nla-gpu2.ianm.kit.edu 32)
)
Pstream initialized with:
    floatTransfer      : 0
    nProcsSimpleSum    : 0
    commsType          : nonBlocking
    polling iterations : 0
trapFpe: Floating point exception trapping enabled (FOAM_SIGFPE).
fileModificationChecking : Monitoring run-time modified files using timeStampMaster (fileModificationSkew 5, maxFileModificationPolls 20)
allowSystemOperations : Allowing user-supplied system call operations

// * * * * * * * * * * * * * * * * * * * * * * * * * * * * * * * * * * * * * //
Create time

Create mesh for time = 0


PISO: Operating solver in PISO mode

Reading transportProperties

Reading field p

Reading field U

Reading/calculating face flux field phi


Starting time loop

Time = 0.000333333

Courant Number mean: 0 max: 0
DILUPBiCGStab:  Solving for Ux, Initial residual = 1, Final residual = 0.0298813, No Iterations 5
DILUPBiCGStab:  Solving for Uy:  solution singularity
DILUPBiCGStab:  Solving for Uz:  solution singularity
linear solve U 774584
nonePCG:  Solving for p, Initial residual = 1, Final residual = 9.78115e-07, No Iterations 2629
linear solve p 66303901
time step continuity errors : sum local = 1.00373e-10, global = 5.42544e-21, cumulative = 5.42544e-21
nonePCG:  Solving for p, Initial residual = 0.834521, Final residual = 9.77785e-07, No Iterations 2617
linear solve p 66074104
time step continuity errors : sum local = 1.19072e-10, global = -1.93477e-21, cumulative = 3.49067e-21
ExecutionTime = 138.35 s  ClockTime = 139 s

Time = 0.000666667

Courant Number mean: 0.0302587 max: 0.889595
DILUPBiCGStab:  Solving for Ux, Initial residual = 0.106115, Final residual = 0.0194127, No Iterations 5
DILUPBiCGStab:  Solving for Uy, Initial residual = 0.546692, Final residual = 0.0927907, No Iterations 5
DILUPBiCGStab:  Solving for Uz, Initial residual = 0.926638, Final residual = 0.176408, No Iterations 5
linear solve U 1552108
nonePCG:  Solving for p, Initial residual = 0.931846, Final residual = 9.6448e-07, No Iterations 2600
linear solve p 65672638
time step continuity errors : sum local = 3.32569e-10, global = -2.63576e-21, cumulative = 8.54913e-22
nonePCG:  Solving for p, Initial residual = 0.883987, Final residual = 9.71615e-07, No Iterations 2597
linear solve p 65420737
time step continuity errors : sum local = 3.41702e-10, global = -8.73409e-22, cumulative = -1.84964e-23
ExecutionTime = 271.55 s  ClockTime = 273 s

Time = 0.001

Courant Number mean: 0.0484605 max: 1.07236
DILUPBiCGStab:  Solving for Ux, Initial residual = 0.0663667, Final residual = 0.00943178, No Iterations 5
DILUPBiCGStab:  Solving for Uy, Initial residual = 0.416337, Final residual = 0.0431653, No Iterations 5
DILUPBiCGStab:  Solving for Uz, Initial residual = 0.819296, Final residual = 0.121364, No Iterations 5
linear solve U 1555592
nonePCG:  Solving for p, Initial residual = 0.961989, Final residual = 9.92513e-07, No Iterations 2603
linear solve p 65752314
time step continuity errors : sum local = 5.02211e-10, global = -1.33766e-21, cumulative = -1.35615e-21
nonePCG:  Solving for p, Initial residual = 0.925574, Final residual = 9.87262e-07, No Iterations 2601
linear solve p 65630710
time step continuity errors : sum local = 4.99243e-10, global = -1.0901e-21, cumulative = -2.44626e-21
ExecutionTime = 404.98 s  ClockTime = 407 s

End

Finalising parallel run
================================================================================
hash: 8af682060d86758a852000b06e06b766
/*---------------------------------------------------------------------------*\
| =========                 |                                                 |
| \\      /  F ield         | OpenFOAM: The Open Source CFD Toolbox           |
|  \\    /   O peration     | Version:  v2106                                 |
|   \\  /    A nd           | Website:  www.openfoam.com                      |
|    \\/     M anipulation  |                                                 |
\*---------------------------------------------------------------------------*/
Build  : f815a12bba-20210902 OPENFOAM=2106
Arch   : "LSB;label=32;scalar=64"
Exec   : icoFoam -parallel
Date   : Jan 30 2022
Time   : 13:17:07
Host   : nla-gpu2.ianm.kit.edu
PID    : 1558239
I/O    : uncollated
Case   : /home/greole/data/code/ogl_labbook/lidDrivenCavity3D/resolution/Variation_mesh/200/Variation_matrix_solver/BiCGStab_NoPrecond_DefaultOF/Variation_mpiRank/32/base
nProcs : 32
Hosts  :
(
    (nla-gpu2.ianm.kit.edu 32)
)
Pstream initialized with:
    floatTransfer      : 0
    nProcsSimpleSum    : 0
    commsType          : nonBlocking
    polling iterations : 0
trapFpe: Floating point exception trapping enabled (FOAM_SIGFPE).
fileModificationChecking : Monitoring run-time modified files using timeStampMaster (fileModificationSkew 5, maxFileModificationPolls 20)
allowSystemOperations : Allowing user-supplied system call operations

// * * * * * * * * * * * * * * * * * * * * * * * * * * * * * * * * * * * * * //
Create time

Create mesh for time = 0


PISO: Operating solver in PISO mode

Reading transportProperties

Reading field p

Reading field U

Reading/calculating face flux field phi


Starting time loop

Time = 0.0005

Courant Number mean: 0 max: 0
DILUPBiCGStab:  Solving for Ux, Initial residual = 1, Final residual = 0.0226575, No Iterations 5
DILUPBiCGStab:  Solving for Uy:  solution singularity
DILUPBiCGStab:  Solving for Uz:  solution singularity
linear solve U 215744
nonePBiCGStab:  Solving for p, Initial residual = 1, Final residual = 8.34254e-07, No Iterations 1571
linear solve p 20478292
time step continuity errors : sum local = 3.42797e-10, global = -2.89993e-21, cumulative = -2.89993e-21
nonePBiCGStab:  Solving for p, Initial residual = 0.822214, Final residual = 8.67345e-07, No Iterations 1572
linear solve p 20173590
time step continuity errors : sum local = 4.28176e-10, global = -1.35011e-22, cumulative = -3.03494e-21
ExecutionTime = 42.55 s  ClockTime = 43 s

Time = 0.001

Courant Number mean: 0.0390186 max: 0.866107
DILUPBiCGStab:  Solving for Ux, Initial residual = 0.117681, Final residual = 0.0138968, No Iterations 5
DILUPBiCGStab:  Solving for Uy, Initial residual = 0.506269, Final residual = 0.0538776, No Iterations 5
DILUPBiCGStab:  Solving for Uz, Initial residual = 0.933549, Final residual = 0.106258, No Iterations 5
linear solve U 423759
nonePBiCGStab:  Solving for p, Initial residual = 0.906048, Final residual = 4.27023e-07, No Iterations 1569
linear solve p 20255286
time step continuity errors : sum local = 4.23863e-10, global = -3.34623e-21, cumulative = -6.38117e-21
nonePBiCGStab:  Solving for p, Initial residual = 0.854479, Final residual = 4.88709e-07, No Iterations 1691
linear solve p 21260026
time step continuity errors : sum local = 5.56521e-10, global = -1.81861e-21, cumulative = -8.19978e-21
ExecutionTime = 84.59 s  ClockTime = 85 s

Time = 0.0015

Courant Number mean: 0.0612081 max: 1.02185
DILUPBiCGStab:  Solving for Ux, Initial residual = 0.0683635, Final residual = 0.0059537, No Iterations 5
DILUPBiCGStab:  Solving for Uy, Initial residual = 0.357551, Final residual = 0.0227535, No Iterations 5
DILUPBiCGStab:  Solving for Uz, Initial residual = 0.791835, Final residual = 0.0731073, No Iterations 5
linear solve U 416943
nonePBiCGStab:  Solving for p, Initial residual = 0.939944, Final residual = 9.78665e-07, No Iterations 1549
linear solve p 19247206
time step continuity errors : sum local = 9.81421e-10, global = -5.81415e-21, cumulative = -1.40139e-20
nonePBiCGStab:  Solving for p, Initial residual = 0.905694, Final residual = 9.07375e-07, No Iterations 1639
linear solve p 20434400
time step continuity errors : sum local = 7.62851e-10, global = -3.78337e-21, cumulative = -1.77973e-20
ExecutionTime = 124.81 s  ClockTime = 126 s

End

Finalising parallel run
================================================================================
hash: 065c9fbb5c61f09af7c594db1690b065
/*---------------------------------------------------------------------------*\
| =========                 |                                                 |
| \\      /  F ield         | OpenFOAM: The Open Source CFD Toolbox           |
|  \\    /   O peration     | Version:  v2106                                 |
|   \\  /    A nd           | Website:  www.openfoam.com                      |
|    \\/     M anipulation  |                                                 |
\*---------------------------------------------------------------------------*/
Build  : f815a12bba-20210902 OPENFOAM=2106
Arch   : "LSB;label=32;scalar=64"
Exec   : icoFoam -parallel
Date   : Jan 30 2022
Time   : 13:19:14
Host   : nla-gpu2.ianm.kit.edu
PID    : 1559480
I/O    : uncollated
Case   : /home/greole/data/code/ogl_labbook/lidDrivenCavity3D/resolution/Variation_mesh/200/Variation_matrix_solver/CG_NoPrecond_DefaultOF/Variation_mpiRank/32/base
nProcs : 32
Hosts  :
(
    (nla-gpu2.ianm.kit.edu 32)
)
Pstream initialized with:
    floatTransfer      : 0
    nProcsSimpleSum    : 0
    commsType          : nonBlocking
    polling iterations : 0
trapFpe: Floating point exception trapping enabled (FOAM_SIGFPE).
fileModificationChecking : Monitoring run-time modified files using timeStampMaster (fileModificationSkew 5, maxFileModificationPolls 20)
allowSystemOperations : Allowing user-supplied system call operations

// * * * * * * * * * * * * * * * * * * * * * * * * * * * * * * * * * * * * * //
Create time

Create mesh for time = 0


PISO: Operating solver in PISO mode

Reading transportProperties

Reading field p

Reading field U

Reading/calculating face flux field phi


Starting time loop

Time = 0.0005

Courant Number mean: 0 max: 0
DILUPBiCGStab:  Solving for Ux, Initial residual = 1, Final residual = 0.0226575, No Iterations 5
DILUPBiCGStab:  Solving for Uy:  solution singularity
DILUPBiCGStab:  Solving for Uz:  solution singularity
linear solve U 219005
nonePCG:  Solving for p, Initial residual = 1, Final residual = 9.92723e-07, No Iterations 1748
linear solve p 8779907
time step continuity errors : sum local = 2.0407e-10, global = -3.05471e-21, cumulative = -3.05471e-21
nonePCG:  Solving for p, Initial residual = 0.822211, Final residual = 9.91971e-07, No Iterations 1739
linear solve p 9332000
time step continuity errors : sum local = 2.44852e-10, global = 1.35987e-21, cumulative = -1.69483e-21
ExecutionTime = 20.2 s  ClockTime = 20 s

Time = 0.001

Courant Number mean: 0.0390186 max: 0.866107
DILUPBiCGStab:  Solving for Ux, Initial residual = 0.117681, Final residual = 0.0138967, No Iterations 5
DILUPBiCGStab:  Solving for Uy, Initial residual = 0.506267, Final residual = 0.0538779, No Iterations 5
DILUPBiCGStab:  Solving for Uz, Initial residual = 0.933541, Final residual = 0.106245, No Iterations 5
linear solve U 428353
nonePCG:  Solving for p, Initial residual = 0.906046, Final residual = 9.68737e-07, No Iterations 1730
linear solve p 8598377
time step continuity errors : sum local = 5.40765e-10, global = 1.14577e-21, cumulative = -5.49064e-22
nonePCG:  Solving for p, Initial residual = 0.854484, Final residual = 9.74024e-07, No Iterations 1727
linear solve p 9407133
time step continuity errors : sum local = 5.54575e-10, global = -3.76308e-21, cumulative = -4.31214e-21
ExecutionTime = 38.85 s  ClockTime = 39 s

Time = 0.0015

Courant Number mean: 0.061208 max: 1.02185
DILUPBiCGStab:  Solving for Ux, Initial residual = 0.0683637, Final residual = 0.00595385, No Iterations 5
DILUPBiCGStab:  Solving for Uy, Initial residual = 0.357533, Final residual = 0.02275, No Iterations 5
DILUPBiCGStab:  Solving for Uz, Initial residual = 0.791651, Final residual = 0.0730599, No Iterations 5
linear solve U 420022
nonePCG:  Solving for p, Initial residual = 0.939942, Final residual = 9.82187e-07, No Iterations 1734
linear solve p 8940506
time step continuity errors : sum local = 6.82585e-10, global = 5.41763e-22, cumulative = -3.77038e-21
nonePCG:  Solving for p, Initial residual = 0.905706, Final residual = 9.53327e-07, No Iterations 1733
linear solve p 8858689
time step continuity errors : sum local = 6.57079e-10, global = 3.06921e-21, cumulative = -7.01164e-22
ExecutionTime = 57.29 s  ClockTime = 58 s

End

Finalising parallel run
================================================================================
hash: aa714f5c043e53f49b4b75e3d47b5840
/*---------------------------------------------------------------------------*\
| =========                 |                                                 |
| \\      /  F ield         | OpenFOAM: The Open Source CFD Toolbox           |
|  \\    /   O peration     | Version:  v2106                                 |
|   \\  /    A nd           | Website:  www.openfoam.com                      |
|    \\/     M anipulation  |                                                 |
\*---------------------------------------------------------------------------*/
Build  : f815a12bba-20210902 OPENFOAM=2106
Arch   : "LSB;label=32;scalar=64"
Exec   : icoFoam -parallel
Date   : Jan 30 2022
Time   : 13:20:13
Host   : nla-gpu2.ianm.kit.edu
PID    : 1560103
I/O    : uncollated
Case   : /home/greole/data/code/ogl_labbook/lidDrivenCavity3D/resolution/Variation_mesh/100/Variation_matrix_solver/BiCGStab_NoPrecond_DefaultOF/Variation_mpiRank/32/base
nProcs : 32
Hosts  :
(
    (nla-gpu2.ianm.kit.edu 32)
)
Pstream initialized with:
    floatTransfer      : 0
    nProcsSimpleSum    : 0
    commsType          : nonBlocking
    polling iterations : 0
trapFpe: Floating point exception trapping enabled (FOAM_SIGFPE).
fileModificationChecking : Monitoring run-time modified files using timeStampMaster (fileModificationSkew 5, maxFileModificationPolls 20)
allowSystemOperations : Allowing user-supplied system call operations

// * * * * * * * * * * * * * * * * * * * * * * * * * * * * * * * * * * * * * //
Create time

Create mesh for time = 0


PISO: Operating solver in PISO mode

Reading transportProperties

Reading field p

Reading field U

Reading/calculating face flux field phi


Starting time loop

Time = 0.001

Courant Number mean: 0 max: 0
DILUPBiCGStab:  Solving for Ux, Initial residual = 1, Final residual = 0.0110863, No Iterations 5
DILUPBiCGStab:  Solving for Uy:  solution singularity
DILUPBiCGStab:  Solving for Uz:  solution singularity
linear solve U 17886
nonePBiCGStab:  Solving for p, Initial residual = 1, Final residual = 6.68556e-07, No Iterations 657
linear solve p 620759
time step continuity errors : sum local = 7.95558e-10, global = -1.26032e-20, cumulative = -1.26032e-20
nonePBiCGStab:  Solving for p, Initial residual = 0.779451, Final residual = 2.83064e-07, No Iterations 609
linear solve p 590118
time step continuity errors : sum local = 4.23172e-10, global = -1.13478e-20, cumulative = -2.39509e-20
ExecutionTime = 1.75 s  ClockTime = 2 s

Time = 0.002

Courant Number mean: 0.0552709 max: 0.806869
DILUPBiCGStab:  Solving for Ux, Initial residual = 0.137244, Final residual = 0.00582381, No Iterations 5
DILUPBiCGStab:  Solving for Uy, Initial residual = 0.431557, Final residual = 0.0166735, No Iterations 5
DILUPBiCGStab:  Solving for Uz, Initial residual = 0.95831, Final residual = 0.0351539, No Iterations 5
linear solve U 31411
nonePBiCGStab:  Solving for p, Initial residual = 0.818201, Final residual = 9.33232e-07, No Iterations 620
linear solve p 583943
time step continuity errors : sum local = 1.38866e-09, global = -3.09562e-21, cumulative = -2.70465e-20
nonePBiCGStab:  Solving for p, Initial residual = 0.758654, Final residual = 7.34159e-07, No Iterations 652
linear solve p 601542
time step continuity errors : sum local = 1.33092e-09, global = -1.40632e-20, cumulative = -4.11097e-20
ExecutionTime = 2.99 s  ClockTime = 3 s

Time = 0.003

Courant Number mean: 0.0842046 max: 0.944461
DILUPBiCGStab:  Solving for Ux, Initial residual = 0.0645689, Final residual = 0.00208094, No Iterations 5
DILUPBiCGStab:  Solving for Uy, Initial residual = 0.226398, Final residual = 0.00558125, No Iterations 5
DILUPBiCGStab:  Solving for Uz, Initial residual = 0.734208, Final residual = 0.0235724, No Iterations 5
linear solve U 32449
nonePBiCGStab:  Solving for p, Initial residual = 0.841378, Final residual = 2.33562e-07, No Iterations 680
linear solve p 649462
time step continuity errors : sum local = 4.72815e-10, global = -1.00826e-20, cumulative = -5.11923e-20
nonePBiCGStab:  Solving for p, Initial residual = 0.807915, Final residual = 4.88461e-07, No Iterations 675
linear solve p 610270
time step continuity errors : sum local = 9.66119e-10, global = -1.22122e-20, cumulative = -6.34045e-20
ExecutionTime = 4.3 s  ClockTime = 5 s

End

Finalising parallel run
================================================================================
hash: 266c6735e4a2cc1b880365e45889edac
/*---------------------------------------------------------------------------*\
| =========                 |                                                 |
| \\      /  F ield         | OpenFOAM: The Open Source CFD Toolbox           |
|  \\    /   O peration     | Version:  v2106                                 |
|   \\  /    A nd           | Website:  www.openfoam.com                      |
|    \\/     M anipulation  |                                                 |
\*---------------------------------------------------------------------------*/
Build  : f815a12bba-20210902 OPENFOAM=2106
Arch   : "LSB;label=32;scalar=64"
Exec   : icoFoam -parallel
Date   : Jan 30 2022
Time   : 13:20:19
Host   : nla-gpu2.ianm.kit.edu
PID    : 1560286
I/O    : uncollated
Case   : /home/greole/data/code/ogl_labbook/lidDrivenCavity3D/resolution/Variation_mesh/100/Variation_matrix_solver/CG_NoPrecond_DefaultOF/Variation_mpiRank/32/base
nProcs : 32
Hosts  :
(
    (nla-gpu2.ianm.kit.edu 32)
)
Pstream initialized with:
    floatTransfer      : 0
    nProcsSimpleSum    : 0
    commsType          : nonBlocking
    polling iterations : 0
trapFpe: Floating point exception trapping enabled (FOAM_SIGFPE).
fileModificationChecking : Monitoring run-time modified files using timeStampMaster (fileModificationSkew 5, maxFileModificationPolls 20)
allowSystemOperations : Allowing user-supplied system call operations

// * * * * * * * * * * * * * * * * * * * * * * * * * * * * * * * * * * * * * //
Create time

Create mesh for time = 0


PISO: Operating solver in PISO mode

Reading transportProperties

Reading field p

Reading field U

Reading/calculating face flux field phi


Starting time loop

Time = 0.001

Courant Number mean: 0 max: 0
DILUPBiCGStab:  Solving for Ux, Initial residual = 1, Final residual = 0.0110863, No Iterations 5
DILUPBiCGStab:  Solving for Uy:  solution singularity
DILUPBiCGStab:  Solving for Uz:  solution singularity
linear solve U 17699
nonePCG:  Solving for p, Initial residual = 1, Final residual = 9.90785e-07, No Iterations 860
linear solve p 401377
time step continuity errors : sum local = 5.89929e-10, global = -9.31713e-21, cumulative = -9.31713e-21
nonePCG:  Solving for p, Initial residual = 0.779449, Final residual = 9.99514e-07, No Iterations 855
linear solve p 409282
time step continuity errors : sum local = 7.47144e-10, global = -6.80618e-21, cumulative = -1.61233e-20
ExecutionTime = 1.48 s  ClockTime = 1 s

Time = 0.002

Courant Number mean: 0.055271 max: 0.806869
DILUPBiCGStab:  Solving for Ux, Initial residual = 0.137243, Final residual = 0.00582378, No Iterations 5
DILUPBiCGStab:  Solving for Uy, Initial residual = 0.431558, Final residual = 0.0166736, No Iterations 5
DILUPBiCGStab:  Solving for Uz, Initial residual = 0.958311, Final residual = 0.0351541, No Iterations 5
linear solve U 31265
nonePCG:  Solving for p, Initial residual = 0.818201, Final residual = 9.92156e-07, No Iterations 845
linear solve p 385662
time step continuity errors : sum local = 1.11792e-09, global = -2.62593e-20, cumulative = -4.23826e-20
nonePCG:  Solving for p, Initial residual = 0.758654, Final residual = 9.96037e-07, No Iterations 841
linear solve p 381651
time step continuity errors : sum local = 1.14575e-09, global = -1.34141e-20, cumulative = -5.57967e-20
ExecutionTime = 2.3 s  ClockTime = 2 s

Time = 0.003

Courant Number mean: 0.0842046 max: 0.944461
DILUPBiCGStab:  Solving for Ux, Initial residual = 0.0645685, Final residual = 0.00208091, No Iterations 5
DILUPBiCGStab:  Solving for Uy, Initial residual = 0.226398, Final residual = 0.00558125, No Iterations 5
DILUPBiCGStab:  Solving for Uz, Initial residual = 0.734206, Final residual = 0.0235719, No Iterations 5
linear solve U 30449
nonePCG:  Solving for p, Initial residual = 0.841379, Final residual = 9.68366e-07, No Iterations 846
linear solve p 378357
time step continuity errors : sum local = 9.81847e-10, global = -1.13878e-20, cumulative = -6.71845e-20
nonePCG:  Solving for p, Initial residual = 0.807913, Final residual = 9.88672e-07, No Iterations 843
linear solve p 382682
time step continuity errors : sum local = 9.77765e-10, global = -2.14995e-20, cumulative = -8.86841e-20
ExecutionTime = 3.11 s  ClockTime = 3 s

End

Finalising parallel run
================================================================================
hash: 4696581b2f23ccaba7d3f35be28ced17
/*---------------------------------------------------------------------------*\
| =========                 |                                                 |
| \\      /  F ield         | OpenFOAM: The Open Source CFD Toolbox           |
|  \\    /   O peration     | Version:  v2106                                 |
|   \\  /    A nd           | Website:  www.openfoam.com                      |
|    \\/     M anipulation  |                                                 |
\*---------------------------------------------------------------------------*/
Build  : f815a12bba-20210902 OPENFOAM=2106
Arch   : "LSB;label=32;scalar=64"
Exec   : icoFoam -parallel
Date   : Jan 30 2022
Time   : 13:20:23
Host   : nla-gpu2.ianm.kit.edu
PID    : 1560485
I/O    : uncollated
Case   : /home/greole/data/code/ogl_labbook/lidDrivenCavity3D/resolution/Variation_mesh/500/Variation_matrix_solver/BiCGStab_NoPrecond_DefaultOF/Variation_mpiRank/32/base
nProcs : 32
Hosts  :
(
    (nla-gpu2.ianm.kit.edu 32)
)
Pstream initialized with:
    floatTransfer      : 0
    nProcsSimpleSum    : 0
    commsType          : nonBlocking
    polling iterations : 0
trapFpe: Floating point exception trapping enabled (FOAM_SIGFPE).
fileModificationChecking : Monitoring run-time modified files using timeStampMaster (fileModificationSkew 5, maxFileModificationPolls 20)
allowSystemOperations : Allowing user-supplied system call operations

// * * * * * * * * * * * * * * * * * * * * * * * * * * * * * * * * * * * * * //
Create time

Create mesh for time = 0


PISO: Operating solver in PISO mode

Reading transportProperties

Reading field p

Reading field U

Reading/calculating face flux field phi


Starting time loop

Time = 0.0002

Courant Number mean: 0 max: 0
DILUPBiCGStab:  Solving for Ux, Initial residual = 1, Final residual = 0.0373385, No Iterations 5
DILUPBiCGStab:  Solving for Uy:  solution singularity
DILUPBiCGStab:  Solving for Uz:  solution singularity
linear solve U 3611793
nonePBiCGStab:  Solving for p, Initial residual = 1, Final residual = 8.07219e-07, No Iterations 5237
linear solve p 1171574310
time step continuity errors : sum local = 6.71853e-11, global = 1.34919e-21, cumulative = 1.34919e-21
nonePBiCGStab:  Solving for p, Initial residual = 0.84697, Final residual = 9.27537e-07, No Iterations 6471
linear solve p 1448666715
time step continuity errors : sum local = 8.72973e-11, global = -5.49762e-22, cumulative = 7.99431e-22
ExecutionTime = 2637.42 s  ClockTime = 2650 s

Time = 0.0004

Courant Number mean: 0.0210136 max: 0.912894
DILUPBiCGStab:  Solving for Ux, Initial residual = 0.0924853, Final residual = 0.0256176, No Iterations 5
DILUPBiCGStab:  Solving for Uy, Initial residual = 0.596366, Final residual = 0.163923, No Iterations 5
DILUPBiCGStab:  Solving for Uz, Initial residual = 0.933723, Final residual = 0.29408, No Iterations 5
linear solve U 7235068
nonePBiCGStab:  Solving for p, Initial residual = 0.951462, Final residual = 2.27577e-07, No Iterations 5511
linear solve p 1232150183
time step continuity errors : sum local = 7.66627e-11, global = -7.50953e-22, cumulative = 4.8478e-23
nonePBiCGStab:  Solving for p, Initial residual = 0.90647, Final residual = 9.86158e-07, No Iterations 3941
linear solve p 882132497
time step continuity errors : sum local = 3.49118e-10, global = 3.1681e-22, cumulative = 3.65288e-22
ExecutionTime = 4754.76 s  ClockTime = 4777 s

Time = 0.0006

Courant Number mean: 0.03456 max: 1.13883
DILUPBiCGStab:  Solving for Ux, Initial residual = 0.0603981, Final residual = 0.0142087, No Iterations 5
DILUPBiCGStab:  Solving for Uy, Initial residual = 0.466449, Final residual = 0.0800185, No Iterations 5
DILUPBiCGStab:  Solving for Uz, Initial residual = 0.843445, Final residual = 0.197595, No Iterations 5
linear solve U 7241459
nonePBiCGStab:  Solving for p, Initial residual = 0.976144, Final residual = 9.53667e-07, No Iterations 3369
linear solve p 753265578
time step continuity errors : sum local = 5.11259e-10, global = -8.07721e-22, cumulative = -4.42433e-22
nonePBiCGStab:  Solving for p, Initial residual = 0.937702, Final residual = 7.43544e-07, No Iterations 5826
linear solve p 1304977340
time step continuity errors : sum local = 3.23727e-10, global = -1.36294e-21, cumulative = -1.80537e-21
ExecutionTime = 6816.41 s  ClockTime = 6848 s

End

Finalising parallel run
================================================================================
hash: a9e2d988eaa1b4b4d774fe23b9da8674
/*---------------------------------------------------------------------------*\
| =========                 |                                                 |
| \\      /  F ield         | OpenFOAM: The Open Source CFD Toolbox           |
|  \\    /   O peration     | Version:  v2106                                 |
|   \\  /    A nd           | Website:  www.openfoam.com                      |
|    \\/     M anipulation  |                                                 |
\*---------------------------------------------------------------------------*/
Build  : f815a12bba-20210902 OPENFOAM=2106
Arch   : "LSB;label=32;scalar=64"
Exec   : icoFoam -parallel
Date   : Jan 30 2022
Time   : 15:14:33
Host   : nla-gpu2.ianm.kit.edu
PID    : 1623183
I/O    : uncollated
Case   : /home/greole/data/code/ogl_labbook/lidDrivenCavity3D/resolution/Variation_mesh/500/Variation_matrix_solver/CG_NoPrecond_DefaultOF/Variation_mpiRank/32/base
nProcs : 32
Hosts  :
(
    (nla-gpu2.ianm.kit.edu 32)
)
Pstream initialized with:
    floatTransfer      : 0
    nProcsSimpleSum    : 0
    commsType          : nonBlocking
    polling iterations : 0
trapFpe: Floating point exception trapping enabled (FOAM_SIGFPE).
fileModificationChecking : Monitoring run-time modified files using timeStampMaster (fileModificationSkew 5, maxFileModificationPolls 20)
allowSystemOperations : Allowing user-supplied system call operations

// * * * * * * * * * * * * * * * * * * * * * * * * * * * * * * * * * * * * * //
Create time

Create mesh for time = 0


PISO: Operating solver in PISO mode

Reading transportProperties

Reading field p

Reading field U

Reading/calculating face flux field phi


Starting time loop

Time = 0.0002

Courant Number mean: 0 max: 0
DILUPBiCGStab:  Solving for Ux, Initial residual = 1, Final residual = 0.0373385, No Iterations 5
DILUPBiCGStab:  Solving for Uy:  solution singularity
DILUPBiCGStab:  Solving for Uz:  solution singularity
linear solve U 3583130
nonePCG:  Solving for p, Initial residual = 1, Final residual = 9.94211e-07, No Iterations 4090
linear solve p 480181322
time step continuity errors : sum local = 4.13744e-11, global = 6.30768e-22, cumulative = 6.30768e-22
nonePCG:  Solving for p, Initial residual = 0.846972, Final residual = 9.94181e-07, No Iterations 4078
linear solve p 478426955
time step continuity errors : sum local = 4.84756e-11, global = -6.08395e-22, cumulative = 2.23734e-23
ExecutionTime = 982.93 s  ClockTime = 987 s

Time = 0.0004

Courant Number mean: 0.0210136 max: 0.912894
DILUPBiCGStab:  Solving for Ux, Initial residual = 0.0924854, Final residual = 0.0256176, No Iterations 5
DILUPBiCGStab:  Solving for Uy, Initial residual = 0.596365, Final residual = 0.163922, No Iterations 5
DILUPBiCGStab:  Solving for Uz, Initial residual = 0.933691, Final residual = 0.293984, No Iterations 5
linear solve U 7260407
nonePCG:  Solving for p, Initial residual = 0.95146, Final residual = 9.86911e-07, No Iterations 4064
linear solve p 476153534
time step continuity errors : sum local = 1.72886e-10, global = -7.23699e-22, cumulative = -7.01326e-22
nonePCG:  Solving for p, Initial residual = 0.906472, Final residual = 9.87814e-07, No Iterations 4061
linear solve p 475811115
time step continuity errors : sum local = 1.76491e-10, global = -4.65196e-22, cumulative = -1.16652e-21
ExecutionTime = 1943.02 s  ClockTime = 1952 s

Time = 0.0006

Courant Number mean: 0.03456 max: 1.13883
DILUPBiCGStab:  Solving for Ux, Initial residual = 0.0603974, Final residual = 0.0142086, No Iterations 5
DILUPBiCGStab:  Solving for Uy, Initial residual = 0.466427, Final residual = 0.0800109, No Iterations 5
DILUPBiCGStab:  Solving for Uz, Initial residual = 0.843281, Final residual = 0.197357, No Iterations 5
linear solve U 7240846
nonePCG:  Solving for p, Initial residual = 0.976144, Final residual = 9.97101e-07, No Iterations 2488
linear solve p 291373272
time step continuity errors : sum local = 3.21895e-10, global = -7.08784e-22, cumulative = -1.87531e-21
nonePCG:  Solving for p, Initial residual = 0.937711, Final residual = 9.90048e-07, No Iterations 2474
linear solve p 290293708
time step continuity errors : sum local = 3.07755e-10, global = -2.48014e-22, cumulative = -2.12332e-21
ExecutionTime = 2534.59 s  ClockTime = 2547 s

End

Finalising parallel run
================================================================================
hash: a685125f578dbdb473cb8a48a1b1f917
/*---------------------------------------------------------------------------*\
| =========                 |                                                 |
| \\      /  F ield         | OpenFOAM: The Open Source CFD Toolbox           |
|  \\    /   O peration     | Version:  v2106                                 |
|   \\  /    A nd           | Website:  www.openfoam.com                      |
|    \\/     M anipulation  |                                                 |
\*---------------------------------------------------------------------------*/
Build  : f815a12bba-20210902 OPENFOAM=2106
Arch   : "LSB;label=32;scalar=64"
Exec   : icoFoam -parallel
Date   : Jan 30 2022
Time   : 15:57:01
Host   : nla-gpu2.ianm.kit.edu
PID    : 1646391
I/O    : uncollated
Case   : /home/greole/data/code/ogl_labbook/lidDrivenCavity3D/resolution/Variation_mesh/400/Variation_matrix_solver/BiCGStab_NoPrecond_DefaultOF/Variation_mpiRank/32/base
nProcs : 32
Hosts  :
(
    (nla-gpu2.ianm.kit.edu 32)
)
Pstream initialized with:
    floatTransfer      : 0
    nProcsSimpleSum    : 0
    commsType          : nonBlocking
    polling iterations : 0
trapFpe: Floating point exception trapping enabled (FOAM_SIGFPE).
fileModificationChecking : Monitoring run-time modified files using timeStampMaster (fileModificationSkew 5, maxFileModificationPolls 20)
allowSystemOperations : Allowing user-supplied system call operations

// * * * * * * * * * * * * * * * * * * * * * * * * * * * * * * * * * * * * * //
Create time

Create mesh for time = 0


PISO: Operating solver in PISO mode

Reading transportProperties

Reading field p

Reading field U

Reading/calculating face flux field phi


Starting time loop

Time = 0.00025

Courant Number mean: 0 max: 0
DILUPBiCGStab:  Solving for Ux, Initial residual = 1, Final residual = 0.0340181, No Iterations 5
DILUPBiCGStab:  Solving for Uy:  solution singularity
DILUPBiCGStab:  Solving for Uz:  solution singularity
linear solve U 1865674
nonePBiCGStab:  Solving for p, Initial residual = 1, Final residual = 9.86391e-07, No Iterations 3680
linear solve p 423415647
time step continuity errors : sum local = 1.20309e-10, global = 5.73603e-21, cumulative = 5.73603e-21
nonePBiCGStab:  Solving for p, Initial residual = 0.841166, Final residual = 9.23889e-07, No Iterations 3327
linear solve p 382857066
time step continuity errors : sum local = 1.32912e-10, global = -1.44847e-22, cumulative = 5.59118e-21
ExecutionTime = 817.58 s  ClockTime = 822 s

Time = 0.0005

Courant Number mean: 0.0248469 max: 0.904816
DILUPBiCGStab:  Solving for Ux, Initial residual = 0.0982275, Final residual = 0.0230168, No Iterations 5
DILUPBiCGStab:  Solving for Uy, Initial residual = 0.574556, Final residual = 0.130561, No Iterations 5
DILUPBiCGStab:  Solving for Uz, Initial residual = 0.936083, Final residual = 0.240698, No Iterations 5
linear solve U 3714616
nonePBiCGStab:  Solving for p, Initial residual = 0.944013, Final residual = 6.12013e-07, No Iterations 3808
linear solve p 438176452
time step continuity errors : sum local = 2.86865e-10, global = -1.71278e-22, cumulative = 5.4199e-21
nonePBiCGStab:  Solving for p, Initial residual = 0.89806, Final residual = 3.93221e-07, No Iterations 3413
linear solve p 392790609
time step continuity errors : sum local = 1.8112e-10, global = 6.52852e-22, cumulative = 6.07275e-21
ExecutionTime = 1651.25 s  ClockTime = 1659 s

Time = 0.00075

Courant Number mean: 0.0403189 max: 1.11046
DILUPBiCGStab:  Solving for Ux, Initial residual = 0.0633128, Final residual = 0.012164, No Iterations 5
DILUPBiCGStab:  Solving for Uy, Initial residual = 0.447, Final residual = 0.0625993, No Iterations 5
DILUPBiCGStab:  Solving for Uz, Initial residual = 0.830864, Final residual = 0.161869, No Iterations 5
linear solve U 3706838
nonePBiCGStab:  Solving for p, Initial residual = 0.971217, Final residual = 9.19222e-07, No Iterations 4570
linear solve p 524999354
time step continuity errors : sum local = 6.14878e-10, global = 8.48687e-22, cumulative = 6.92144e-21
nonePBiCGStab:  Solving for p, Initial residual = 0.933477, Final residual = 9.76587e-07, No Iterations 3891
linear solve p 447851550
time step continuity errors : sum local = 5.26581e-10, global = 3.76109e-22, cumulative = 7.29755e-21
ExecutionTime = 2626.26 s  ClockTime = 2639 s

End

Finalising parallel run
================================================================================
hash: 7b90083430fa40cc098d776910df8b5e
/*---------------------------------------------------------------------------*\
| =========                 |                                                 |
| \\      /  F ield         | OpenFOAM: The Open Source CFD Toolbox           |
|  \\    /   O peration     | Version:  v2106                                 |
|   \\  /    A nd           | Website:  www.openfoam.com                      |
|    \\/     M anipulation  |                                                 |
\*---------------------------------------------------------------------------*/
Build  : f815a12bba-20210902 OPENFOAM=2106
Arch   : "LSB;label=32;scalar=64"
Exec   : icoFoam -parallel
Date   : Jan 30 2022
Time   : 16:41:01
Host   : nla-gpu2.ianm.kit.edu
PID    : 1670690
I/O    : uncollated
Case   : /home/greole/data/code/ogl_labbook/lidDrivenCavity3D/resolution/Variation_mesh/400/Variation_matrix_solver/CG_NoPrecond_DefaultOF/Variation_mpiRank/32/base
nProcs : 32
Hosts  :
(
    (nla-gpu2.ianm.kit.edu 32)
)
Pstream initialized with:
    floatTransfer      : 0
    nProcsSimpleSum    : 0
    commsType          : nonBlocking
    polling iterations : 0
trapFpe: Floating point exception trapping enabled (FOAM_SIGFPE).
fileModificationChecking : Monitoring run-time modified files using timeStampMaster (fileModificationSkew 5, maxFileModificationPolls 20)
allowSystemOperations : Allowing user-supplied system call operations

// * * * * * * * * * * * * * * * * * * * * * * * * * * * * * * * * * * * * * //
Create time

Create mesh for time = 0


PISO: Operating solver in PISO mode

Reading transportProperties

Reading field p

Reading field U

Reading/calculating face flux field phi


Starting time loop

Time = 0.00025

Courant Number mean: 0 max: 0
DILUPBiCGStab:  Solving for Ux, Initial residual = 1, Final residual = 0.0340181, No Iterations 5
DILUPBiCGStab:  Solving for Uy:  solution singularity
DILUPBiCGStab:  Solving for Uz:  solution singularity
linear solve U 1865183
nonePCG:  Solving for p, Initial residual = 1, Final residual = 9.95606e-07, No Iterations 3555
linear solve p 214612034
time step continuity errors : sum local = 6.07169e-11, global = 6.23662e-21, cumulative = 6.23662e-21
nonePCG:  Solving for p, Initial residual = 0.841162, Final residual = 9.99483e-07, No Iterations 3533
linear solve p 212827214
time step continuity errors : sum local = 7.18945e-11, global = -4.99676e-22, cumulative = 5.73695e-21
ExecutionTime = 440.08 s  ClockTime = 442 s

Time = 0.0005

Courant Number mean: 0.0248469 max: 0.904816
DILUPBiCGStab:  Solving for Ux, Initial residual = 0.0982264, Final residual = 0.0230163, No Iterations 5
DILUPBiCGStab:  Solving for Uy, Initial residual = 0.574553, Final residual = 0.130562, No Iterations 5
DILUPBiCGStab:  Solving for Uz, Initial residual = 0.936016, Final residual = 0.240601, No Iterations 5
linear solve U 3735698
nonePCG:  Solving for p, Initial residual = 0.944011, Final residual = 9.96791e-07, No Iterations 3514
linear solve p 211365585
time step continuity errors : sum local = 2.35681e-10, global = -3.58177e-22, cumulative = 5.37877e-21
nonePCG:  Solving for p, Initial residual = 0.898064, Final residual = 9.9299e-07, No Iterations 3510
linear solve p 211110333
time step continuity errors : sum local = 2.39446e-10, global = -1.1705e-21, cumulative = 4.20827e-21
ExecutionTime = 867.13 s  ClockTime = 871 s

Time = 0.00075

Courant Number mean: 0.0403189 max: 1.11046
DILUPBiCGStab:  Solving for Ux, Initial residual = 0.0633126, Final residual = 0.0121648, No Iterations 5
DILUPBiCGStab:  Solving for Uy, Initial residual = 0.446949, Final residual = 0.0625726, No Iterations 5
DILUPBiCGStab:  Solving for Uz, Initial residual = 0.830668, Final residual = 0.161635, No Iterations 5
linear solve U 3720880
nonePCG:  Solving for p, Initial residual = 0.971216, Final residual = 9.98972e-07, No Iterations 3515
linear solve p 211300605
time step continuity errors : sum local = 3.84924e-10, global = -1.90949e-22, cumulative = 4.01732e-21
nonePCG:  Solving for p, Initial residual = 0.933493, Final residual = 9.87879e-07, No Iterations 3513
linear solve p 211468885
time step continuity errors : sum local = 3.81951e-10, global = -4.45545e-22, cumulative = 3.57178e-21
ExecutionTime = 1294.38 s  ClockTime = 1300 s

End

Finalising parallel run
================================================================================
