
============================= JOB FEEDBACK =============================

Job ID: 1743414
Cluster: hk
User/Group: eq4036/hk-project-test-fine
State: COMPLETED (exit code 0)
Partition: accelerated
Nodes: 1
Cores per node: 152
Nodelist: hkn0804
CPU Utilized: 08:30:31
CPU Efficiency: 1.31% of 27-01:12:32 core-walltime
Job Wall-clock time: 04:16:16
Starttime: Tue May 17 07:38:40 2022
Endtime: Tue May 17 11:54:56 2022
Memory Utilized: 186.20 GB
Memory Efficiency: 0.00% of 0.00 MB
Energy Consumed: 11105621 Joule / 3084.89472222222 Watthours
Average node power draw: 722.269836108221 Watt
hash: a046b2b84cfae16c594ab2ba85d9989c
/*---------------------------------------------------------------------------*\
| =========                 |                                                 |
| \\      /  F ield         | OpenFOAM: The Open Source CFD Toolbox           |
|  \\    /   O peration     | Version:  2112                                  |
|   \\  /    A nd           | Website:  www.openfoam.com                      |
|    \\/     M anipulation  |                                                 |
\*---------------------------------------------------------------------------*/
Build  : d44c8318f0-20220111 OPENFOAM=2112 version=v2112
Arch   : "LSB;label=32;scalar=64"
Exec   : icoFoam -parallel
Date   : May 17 2022
Time   : 07:39:02
Host   : hkn0804.localdomain
PID    : 523601
I/O    : uncollated
Case   : /hkfs/home/project/hk-project-test-fine/eq4036/data/code/ogl_labbook/lidDrivenCavity/scaling/Variation_mesh/500/Variation_matrix_solver/CG_NoPrecond_CUDA/Variation_mpiRank_gko/2/base
nProcs : 2
Hosts  :
(
    (hkn0804.localdomain 2)
)
Pstream initialized with:
    floatTransfer      : 0
    nProcsSimpleSum    : 0
    commsType          : nonBlocking
    polling iterations : 0
trapFpe: Floating point exception trapping enabled (FOAM_SIGFPE).
fileModificationChecking : Monitoring run-time modified files using timeStampMaster (fileModificationSkew 5, maxFileModificationPolls 20)
allowSystemOperations : Allowing user-supplied system call operations

// * * * * * * * * * * * * * * * * * * * * * * * * * * * * * * * * * * * * * //
Create time

Create mesh for time = 0


PISO: Operating solver in PISO mode

Reading transportProperties

Reading field p

Reading field U

Reading/calculating face flux field phi


Starting time loop

Time = 2e-05

Courant Number mean: 0 max: 0
DILUPBiCGStab:  Solving for Ux, Initial residual = 1, Final residual = 0.00183231, No Iterations 5
DILUPBiCGStab:  Solving for Uy:  solution singularity
DILUPBiCGStab:  Solving for Uz:  solution singularity
linear solve U 41220547
[OGL LOG][Proc: 0]global_index_init : 25 mu s
[OGL LOG][Proc: 0]global_index_init : 1 mu s
[OGL LOG][Proc: 0]init_host_sparsity_pattern : 12032794527 mu s
[OGL LOG][Proc: 0]update_host_matrix_data : 1784421 mu s
[OGL LOG][Proc: 0]convert_coo_to_csr : 2576284 mu s
[OGL LOG][Proc: 0]gather_initGuess : 5 mu s
[OGL LOG][Proc: 0]gather_RHS : 0 mu s
[OGL LOG][Proc: 0]gather_global_matrix : 1 mu s
[OGL LOG][Proc: 0]init_precond : 98 mu s
[OGL LOG][Proc: 0]generate_solver : 11 mu s
[OGL LOG][Proc: 0]solve : 61780540 mu s
nonecudaGKOCG:  Solving for p, Initial residual = 1, Final residual = 9.831e-05, No Iterations 3974
linear solve p -754610645
time step continuity errors : sum local = 1.69369e-10, global = 1.49769e-22, cumulative = 1.49769e-22
[OGL LOG][Proc: 0]global_index_init : 7 mu s
[OGL LOG][Proc: 0]global_index_init : 0 mu s
[OGL LOG][Proc: 0]update_host_matrix_data : 1574813 mu s
[OGL LOG][Proc: 0]gather_initGuess : 1 mu s
[OGL LOG][Proc: 0]gather_RHS : 0 mu s
[OGL LOG][Proc: 0]gather_global_matrix : 0 mu s
[OGL LOG][Proc: 0]init_precond : 58 mu s
[OGL LOG][Proc: 0]generate_solver : 0 mu s
[OGL LOG][Proc: 0]solve : 54988905 mu s
nonecudaGKOCG:  Solving for p, Initial residual = 1, Final residual = 7.47364e-05, No Iterations 3635
linear solve p 84940368
time step continuity errors : sum local = 4.1663e-11, global = -1.53436e-23, cumulative = 1.34425e-22
ExecutionTime = 12503.9 s  ClockTime = 12528 s

Time = 4e-05

Courant Number mean: 0.00105713 max: 0.0776066
DILUPBiCGStab:  Solving for Ux, Initial residual = 0.150255, Final residual = 0.00118393, No Iterations 5
DILUPBiCGStab:  Solving for Uy, Initial residual = 0.35567, Final residual = 0.00159765, No Iterations 5
DILUPBiCGStab:  Solving for Uz, Initial residual = 0.998046, Final residual = 0.00603672, No Iterations 5
linear solve U 83227600
[OGL LOG][Proc: 0]global_index_init : 11 mu s
[OGL LOG][Proc: 0]global_index_init : 0 mu s
[OGL LOG][Proc: 0]update_host_matrix_data : 1570798 mu s
[OGL LOG][Proc: 0]gather_initGuess : 1 mu s
[OGL LOG][Proc: 0]gather_RHS : 0 mu s
[OGL LOG][Proc: 0]gather_global_matrix : 0 mu s
[OGL LOG][Proc: 0]init_precond : 49 mu s
[OGL LOG][Proc: 0]generate_solver : 1 mu s
[OGL LOG][Proc: 0]solve : 59485017 mu s
nonecudaGKOCG:  Solving for p, Initial residual = 1, Final residual = 9.74706e-05, No Iterations 3916
linear solve p 89544963
time step continuity errors : sum local = 2.0058e-10, global = 2.19261e-23, cumulative = 1.56351e-22
[OGL LOG][Proc: 0]global_index_init : 7 mu s
[OGL LOG][Proc: 0]global_index_init : 0 mu s
[OGL LOG][Proc: 0]update_host_matrix_data : 1574616 mu s
[OGL LOG][Proc: 0]gather_initGuess : 1 mu s
[OGL LOG][Proc: 0]gather_RHS : 0 mu s
[OGL LOG][Proc: 0]gather_global_matrix : 0 mu s
[OGL LOG][Proc: 0]init_precond : 48 mu s
[OGL LOG][Proc: 0]generate_solver : 1 mu s
[OGL LOG][Proc: 0]solve : 54039794 mu s
nonecudaGKOCG:  Solving for p, Initial residual = 1, Final residual = 6.03385e-05, No Iterations 3589
linear solve p 84102653
time step continuity errors : sum local = 3.60523e-11, global = -4.36207e-24, cumulative = 1.51989e-22
ExecutionTime = 12817.4 s  ClockTime = 12844 s

Time = 6e-05

Courant Number mean: 0.00160836 max: 0.0884769
DILUPBiCGStab:  Solving for Ux, Initial residual = 0.0623326, Final residual = 0.000368389, No Iterations 5
DILUPBiCGStab:  Solving for Uy, Initial residual = 0.140185, Final residual = 0.000353807, No Iterations 5
DILUPBiCGStab:  Solving for Uz, Initial residual = 0.660804, Final residual = 0.00540732, No Iterations 5
linear solve U 83194302
[OGL LOG][Proc: 0]global_index_init : 7 mu s
[OGL LOG][Proc: 0]global_index_init : 0 mu s
[OGL LOG][Proc: 0]update_host_matrix_data : 1580381 mu s
[OGL LOG][Proc: 0]gather_initGuess : 1 mu s
[OGL LOG][Proc: 0]gather_RHS : 0 mu s
[OGL LOG][Proc: 0]gather_global_matrix : 0 mu s
[OGL LOG][Proc: 0]init_precond : 47 mu s
[OGL LOG][Proc: 0]generate_solver : 0 mu s
[OGL LOG][Proc: 0]solve : 58426225 mu s
nonecudaGKOCG:  Solving for p, Initial residual = 1, Final residual = 6.36263e-05, No Iterations 3862
linear solve p 88497986
time step continuity errors : sum local = 8.53431e-11, global = -1.2448e-23, cumulative = 1.39541e-22
[OGL LOG][Proc: 0]global_index_init : 8 mu s
[OGL LOG][Proc: 0]global_index_init : 0 mu s
[OGL LOG][Proc: 0]update_host_matrix_data : 1576342 mu s
[OGL LOG][Proc: 0]gather_initGuess : 1 mu s
[OGL LOG][Proc: 0]gather_RHS : 0 mu s
[OGL LOG][Proc: 0]gather_global_matrix : 0 mu s
[OGL LOG][Proc: 0]init_precond : 49 mu s
[OGL LOG][Proc: 0]generate_solver : 1 mu s
[OGL LOG][Proc: 0]solve : 55917223 mu s
nonecudaGKOCG:  Solving for p, Initial residual = 1, Final residual = 3.61946e-05, No Iterations 3697
linear solve p 85986911
time step continuity errors : sum local = 2.01037e-11, global = 6.92317e-23, cumulative = 2.08773e-22
ExecutionTime = 13131.6 s  ClockTime = 13160 s

Time = 8e-05

Courant Number mean: 0.00199418 max: 0.0913786
DILUPBiCGStab:  Solving for Ux, Initial residual = 0.0414657, Final residual = 0.000167761, No Iterations 5
DILUPBiCGStab:  Solving for Uy, Initial residual = 0.0886498, Final residual = 0.000217448, No Iterations 5
DILUPBiCGStab:  Solving for Uz, Initial residual = 0.160727, Final residual = 0.000914886, No Iterations 5
linear solve U 83260244
[OGL LOG][Proc: 0]global_index_init : 7 mu s
[OGL LOG][Proc: 0]global_index_init : 0 mu s
[OGL LOG][Proc: 0]update_host_matrix_data : 1584811 mu s
[OGL LOG][Proc: 0]gather_initGuess : 1 mu s
[OGL LOG][Proc: 0]gather_RHS : 0 mu s
[OGL LOG][Proc: 0]gather_global_matrix : 0 mu s
[OGL LOG][Proc: 0]init_precond : 48 mu s
[OGL LOG][Proc: 0]generate_solver : 1 mu s
[OGL LOG][Proc: 0]solve : 55613309 mu s
nonecudaGKOCG:  Solving for p, Initial residual = 1, Final residual = 4.73253e-05, No Iterations 3676
linear solve p 85680623
time step continuity errors : sum local = 4.956e-11, global = 4.52497e-24, cumulative = 2.13298e-22
[OGL LOG][Proc: 0]global_index_init : 7 mu s
[OGL LOG][Proc: 0]global_index_init : 0 mu s
[OGL LOG][Proc: 0]update_host_matrix_data : 1576660 mu s
[OGL LOG][Proc: 0]gather_initGuess : 1 mu s
[OGL LOG][Proc: 0]gather_RHS : 0 mu s
[OGL LOG][Proc: 0]gather_global_matrix : 0 mu s
[OGL LOG][Proc: 0]init_precond : 50 mu s
[OGL LOG][Proc: 0]generate_solver : 0 mu s
[OGL LOG][Proc: 0]solve : 53389580 mu s
nonecudaGKOCG:  Solving for p, Initial residual = 1, Final residual = 9.11556e-05, No Iterations 3529
linear solve p 83459481
time step continuity errors : sum local = 5.17022e-11, global = 2.04095e-23, cumulative = 2.33707e-22
ExecutionTime = 13440.5 s  ClockTime = 13470 s

Time = 0.0001

Courant Number mean: 0.00230795 max: 0.0927901
DILUPBiCGStab:  Solving for Ux, Initial residual = 0.0317914, Final residual = 8.86131e-05, No Iterations 5
DILUPBiCGStab:  Solving for Uy, Initial residual = 0.0635734, Final residual = 0.000122032, No Iterations 5
DILUPBiCGStab:  Solving for Uz, Initial residual = 0.0896499, Final residual = 0.000442648, No Iterations 5
linear solve U 83222043
[OGL LOG][Proc: 0]global_index_init : 8 mu s
[OGL LOG][Proc: 0]global_index_init : 0 mu s
[OGL LOG][Proc: 0]update_host_matrix_data : 1582635 mu s
[OGL LOG][Proc: 0]gather_initGuess : 1 mu s
[OGL LOG][Proc: 0]gather_RHS : 3 mu s
[OGL LOG][Proc: 0]gather_global_matrix : 0 mu s
[OGL LOG][Proc: 0]init_precond : 48 mu s
[OGL LOG][Proc: 0]generate_solver : 1 mu s
[OGL LOG][Proc: 0]solve : 57617755 mu s
nonecudaGKOCG:  Solving for p, Initial residual = 1, Final residual = 5.99224e-05, No Iterations 3808
linear solve p 87695741
time step continuity errors : sum local = 4.58078e-11, global = -7.9826e-24, cumulative = 2.25724e-22
[OGL LOG][Proc: 0]global_index_init : 7 mu s
[OGL LOG][Proc: 0]global_index_init : 0 mu s
[OGL LOG][Proc: 0]update_host_matrix_data : 1577841 mu s
[OGL LOG][Proc: 0]gather_initGuess : 1 mu s
[OGL LOG][Proc: 0]gather_RHS : 0 mu s
[OGL LOG][Proc: 0]gather_global_matrix : 0 mu s
[OGL LOG][Proc: 0]init_precond : 50 mu s
[OGL LOG][Proc: 0]generate_solver : 0 mu s
[OGL LOG][Proc: 0]solve : 52903608 mu s
nonecudaGKOCG:  Solving for p, Initial residual = 1, Final residual = 9.22004e-05, No Iterations 3497
linear solve p 82967468
time step continuity errors : sum local = 5.158e-11, global = -9.94914e-24, cumulative = 2.15775e-22
ExecutionTime = 13751 s  ClockTime = 13782 s

Time = 0.00012

Courant Number mean: 0.00257647 max: 0.0936669
DILUPBiCGStab:  Solving for Ux, Initial residual = 0.0259086, Final residual = 6.49097e-05, No Iterations 5
DILUPBiCGStab:  Solving for Uy, Initial residual = 0.0500099, Final residual = 5.76043e-05, No Iterations 5
DILUPBiCGStab:  Solving for Uz, Initial residual = 0.0788543, Final residual = 0.000373596, No Iterations 5
linear solve U 83240107
[OGL LOG][Proc: 0]global_index_init : 9 mu s
[OGL LOG][Proc: 0]global_index_init : 0 mu s
[OGL LOG][Proc: 0]update_host_matrix_data : 1581538 mu s
[OGL LOG][Proc: 0]gather_initGuess : 1 mu s
[OGL LOG][Proc: 0]gather_RHS : 0 mu s
[OGL LOG][Proc: 0]gather_global_matrix : 0 mu s
[OGL LOG][Proc: 0]init_precond : 48 mu s
[OGL LOG][Proc: 0]generate_solver : 1 mu s
[OGL LOG][Proc: 0]solve : 56808311 mu s
nonecudaGKOCG:  Solving for p, Initial residual = 1, Final residual = 6.13289e-05, No Iterations 3754
linear solve p 86878623
time step continuity errors : sum local = 4.357e-11, global = 5.10696e-23, cumulative = 2.66845e-22
[OGL LOG][Proc: 0]global_index_init : 8 mu s
[OGL LOG][Proc: 0]global_index_init : 0 mu s
[OGL LOG][Proc: 0]update_host_matrix_data : 1576758 mu s
[OGL LOG][Proc: 0]gather_initGuess : 1 mu s
[OGL LOG][Proc: 0]gather_RHS : 0 mu s
[OGL LOG][Proc: 0]gather_global_matrix : 0 mu s
[OGL LOG][Proc: 0]init_precond : 50 mu s
[OGL LOG][Proc: 0]generate_solver : 0 mu s
[OGL LOG][Proc: 0]solve : 54488256 mu s
nonecudaGKOCG:  Solving for p, Initial residual = 1, Final residual = 4.43466e-05, No Iterations 3601
linear solve p 84556451
time step continuity errors : sum local = 2.47891e-11, global = -5.61404e-23, cumulative = 2.10704e-22
ExecutionTime = 14062.1 s  ClockTime = 14095 s

Time = 0.00014

Courant Number mean: 0.0028139 max: 0.0942795
DILUPBiCGStab:  Solving for Ux, Initial residual = 0.0219954, Final residual = 4.58656e-05, No Iterations 5
DILUPBiCGStab:  Solving for Uy, Initial residual = 0.0410783, Final residual = 4.54709e-05, No Iterations 5
DILUPBiCGStab:  Solving for Uz, Initial residual = 0.0659222, Final residual = 0.000228517, No Iterations 5
linear solve U 83321863
[OGL LOG][Proc: 0]global_index_init : 8 mu s
[OGL LOG][Proc: 0]global_index_init : 0 mu s
[OGL LOG][Proc: 0]update_host_matrix_data : 1578426 mu s
[OGL LOG][Proc: 0]gather_initGuess : 1 mu s
[OGL LOG][Proc: 0]gather_RHS : 0 mu s
[OGL LOG][Proc: 0]gather_global_matrix : 0 mu s
[OGL LOG][Proc: 0]init_precond : 49 mu s
[OGL LOG][Proc: 0]generate_solver : 0 mu s
[OGL LOG][Proc: 0]solve : 56666054 mu s
nonecudaGKOCG:  Solving for p, Initial residual = 1, Final residual = 5.90379e-05, No Iterations 3745
linear solve p 86756048
time step continuity errors : sum local = 3.83462e-11, global = -2.2452e-23, cumulative = 1.88253e-22
[OGL LOG][Proc: 0]global_index_init : 8 mu s
[OGL LOG][Proc: 0]global_index_init : 0 mu s
[OGL LOG][Proc: 0]update_host_matrix_data : 1574693 mu s
[OGL LOG][Proc: 0]gather_initGuess : 1 mu s
[OGL LOG][Proc: 0]gather_RHS : 0 mu s
[OGL LOG][Proc: 0]gather_global_matrix : 0 mu s
[OGL LOG][Proc: 0]init_precond : 49 mu s
[OGL LOG][Proc: 0]generate_solver : 0 mu s
[OGL LOG][Proc: 0]solve : 54120769 mu s
nonecudaGKOCG:  Solving for p, Initial residual = 1, Final residual = 6.10807e-05, No Iterations 3577
linear solve p 84199868
time step continuity errors : sum local = 3.41475e-11, global = 6.31711e-23, cumulative = 2.51424e-22
ExecutionTime = 14372.8 s  ClockTime = 14407 s

Time = 0.00016

Courant Number mean: 0.00302803 max: 0.0947386
DILUPBiCGStab:  Solving for Ux, Initial residual = 0.0191636, Final residual = 3.40071e-05, No Iterations 5
DILUPBiCGStab:  Solving for Uy, Initial residual = 0.0348934, Final residual = 2.28575e-05, No Iterations 5
DILUPBiCGStab:  Solving for Uz, Initial residual = 0.0586141, Final residual = 0.000142369, No Iterations 5
linear solve U 83218809
[OGL LOG][Proc: 0]global_index_init : 7 mu s
[OGL LOG][Proc: 0]global_index_init : 0 mu s
[OGL LOG][Proc: 0]update_host_matrix_data : 1581681 mu s
[OGL LOG][Proc: 0]gather_initGuess : 1 mu s
[OGL LOG][Proc: 0]gather_RHS : 0 mu s
[OGL LOG][Proc: 0]gather_global_matrix : 0 mu s
[OGL LOG][Proc: 0]init_precond : 50 mu s
[OGL LOG][Proc: 0]generate_solver : 0 mu s
[OGL LOG][Proc: 0]solve : 56275189 mu s
nonecudaGKOCG:  Solving for p, Initial residual = 1, Final residual = 4.43031e-05, No Iterations 3719
linear solve p 86485480
time step continuity errors : sum local = 2.74685e-11, global = -7.825e-24, cumulative = 2.43599e-22
[OGL LOG][Proc: 0]global_index_init : 6 mu s
[OGL LOG][Proc: 0]global_index_init : 0 mu s
[OGL LOG][Proc: 0]update_host_matrix_data : 1576647 mu s
[OGL LOG][Proc: 0]gather_initGuess : 1 mu s
[OGL LOG][Proc: 0]gather_RHS : 0 mu s
[OGL LOG][Proc: 0]gather_global_matrix : 0 mu s
[OGL LOG][Proc: 0]init_precond : 49 mu s
[OGL LOG][Proc: 0]generate_solver : 1 mu s
[OGL LOG][Proc: 0]solve : 53750528 mu s
nonecudaGKOCG:  Solving for p, Initial residual = 1, Final residual = 9.11138e-05, No Iterations 3553
linear solve p 83819923
time step continuity errors : sum local = 5.08786e-11, global = 5.03355e-23, cumulative = 2.93934e-22
ExecutionTime = 14682.9 s  ClockTime = 14719 s

Time = 0.00018

Courant Number mean: 0.00322404 max: 0.0950993
DILUPBiCGStab:  Solving for Ux, Initial residual = 0.0170004, Final residual = 2.47935e-05, No Iterations 5
DILUPBiCGStab:  Solving for Uy, Initial residual = 0.030322, Final residual = 2.11198e-05, No Iterations 5
DILUPBiCGStab:  Solving for Uz, Initial residual = 0.0520178, Final residual = 0.000104786, No Iterations 5
linear solve U 83282642
[OGL LOG][Proc: 0]global_index_init : 6 mu s
[OGL LOG][Proc: 0]global_index_init : 0 mu s
[OGL LOG][Proc: 0]update_host_matrix_data : 1595884 mu s
[OGL LOG][Proc: 0]gather_initGuess : 1 mu s
[OGL LOG][Proc: 0]gather_RHS : 0 mu s
[OGL LOG][Proc: 0]gather_global_matrix : 0 mu s
[OGL LOG][Proc: 0]init_precond : 48 mu s
[OGL LOG][Proc: 0]generate_solver : 0 mu s
[OGL LOG][Proc: 0]solve : 55910825 mu s
nonecudaGKOCG:  Solving for p, Initial residual = 1, Final residual = 4.1043e-05, No Iterations 3693
linear solve p 85997660
time step continuity errors : sum local = 2.46994e-11, global = -3.79591e-23, cumulative = 2.55975e-22
[OGL LOG][Proc: 0]global_index_init : 7 mu s
[OGL LOG][Proc: 0]global_index_init : 0 mu s
[OGL LOG][Proc: 0]update_host_matrix_data : 1574797 mu s
[OGL LOG][Proc: 0]gather_initGuess : 1 mu s
[OGL LOG][Proc: 0]gather_RHS : 0 mu s
[OGL LOG][Proc: 0]gather_global_matrix : 0 mu s
[OGL LOG][Proc: 0]init_precond : 49 mu s
[OGL LOG][Proc: 0]generate_solver : 0 mu s
[OGL LOG][Proc: 0]solve : 55620459 mu s
nonecudaGKOCG:  Solving for p, Initial residual = 1, Final residual = 2.27387e-05, No Iterations 3676
linear solve p 85705608
time step continuity errors : sum local = 1.27064e-11, global = 4.92503e-23, cumulative = 3.05225e-22
ExecutionTime = 14994.3 s  ClockTime = 15032 s

Time = 0.0002

Courant Number mean: 0.00340535 max: 0.0953923
DILUPBiCGStab:  Solving for Ux, Initial residual = 0.0153033, Final residual = 1.89345e-05, No Iterations 5
DILUPBiCGStab:  Solving for Uy, Initial residual = 0.0268, Final residual = 1.32299e-05, No Iterations 5
DILUPBiCGStab:  Solving for Uz, Initial residual = 0.0470677, Final residual = 7.3061e-05, No Iterations 5
linear solve U 83268786
[OGL LOG][Proc: 0]global_index_init : 6 mu s
[OGL LOG][Proc: 0]global_index_init : 0 mu s
[OGL LOG][Proc: 0]update_host_matrix_data : 1584441 mu s
[OGL LOG][Proc: 0]gather_initGuess : 1 mu s
[OGL LOG][Proc: 0]gather_RHS : 0 mu s
[OGL LOG][Proc: 0]gather_global_matrix : 0 mu s
[OGL LOG][Proc: 0]init_precond : 48 mu s
[OGL LOG][Proc: 0]generate_solver : 0 mu s
[OGL LOG][Proc: 0]solve : 55615286 mu s
nonecudaGKOCG:  Solving for p, Initial residual = 1, Final residual = 4.21719e-05, No Iterations 3676
linear solve p 85695685
time step continuity errors : sum local = 2.47511e-11, global = -3.16227e-23, cumulative = 2.73603e-22
[OGL LOG][Proc: 0]global_index_init : 7 mu s
[OGL LOG][Proc: 0]global_index_init : 0 mu s
[OGL LOG][Proc: 0]update_host_matrix_data : 1575739 mu s
[OGL LOG][Proc: 0]gather_initGuess : 1 mu s
[OGL LOG][Proc: 0]gather_RHS : 0 mu s
[OGL LOG][Proc: 0]gather_global_matrix : 0 mu s
[OGL LOG][Proc: 0]init_precond : 48 mu s
[OGL LOG][Proc: 0]generate_solver : 1 mu s
[OGL LOG][Proc: 0]solve : 55616314 mu s
nonecudaGKOCG:  Solving for p, Initial residual = 1, Final residual = 2.39109e-05, No Iterations 3676
linear solve p 85818677
time step continuity errors : sum local = 1.33658e-11, global = -1.52516e-23, cumulative = 2.58351e-22
ExecutionTime = 15305.5 s  ClockTime = 15345 s

End

Finalising parallel run
================================================================================

============================= JOB FEEDBACK =============================

Job ID: 1743415
Cluster: hk
User/Group: eq4036/hk-project-test-fine
State: COMPLETED (exit code 0)
Partition: accelerated
Nodes: 1
Cores per node: 152
Nodelist: hkn0806
CPU Utilized: 10:08:11
CPU Efficiency: 2.61% of 16-03:51:12 core-walltime
Job Wall-clock time: 02:33:06
Starttime: Tue May 17 07:38:40 2022
Endtime: Tue May 17 10:11:46 2022
Memory Utilized: 184.68 GB
Memory Efficiency: 0.00% of 0.00 MB
Energy Consumed: 6967265 Joule / 1935.35138888889 Watthours
Average node power draw: 758.465599825822 Watt
hash: 034038d32df0229013b4a1344731bc70
/*---------------------------------------------------------------------------*\
| =========                 |                                                 |
| \\      /  F ield         | OpenFOAM: The Open Source CFD Toolbox           |
|  \\    /   O peration     | Version:  2112                                  |
|   \\  /    A nd           | Website:  www.openfoam.com                      |
|    \\/     M anipulation  |                                                 |
\*---------------------------------------------------------------------------*/
Build  : d44c8318f0-20220111 OPENFOAM=2112 version=v2112
Arch   : "LSB;label=32;scalar=64"
Exec   : icoFoam -parallel
Date   : May 17 2022
Time   : 07:39:03
Host   : hkn0806.localdomain
PID    : 1315985
I/O    : uncollated
Case   : /hkfs/home/project/hk-project-test-fine/eq4036/data/code/ogl_labbook/lidDrivenCavity/scaling/Variation_mesh/500/Variation_matrix_solver/CG_NoPrecond_CUDA/Variation_mpiRank_gko/4/base
nProcs : 4
Hosts  :
(
    (hkn0806.localdomain 4)
)
Pstream initialized with:
    floatTransfer      : 0
    nProcsSimpleSum    : 0
    commsType          : nonBlocking
    polling iterations : 0
trapFpe: Floating point exception trapping enabled (FOAM_SIGFPE).
fileModificationChecking : Monitoring run-time modified files using timeStampMaster (fileModificationSkew 5, maxFileModificationPolls 20)
allowSystemOperations : Allowing user-supplied system call operations

// * * * * * * * * * * * * * * * * * * * * * * * * * * * * * * * * * * * * * //
Create time

Create mesh for time = 0


PISO: Operating solver in PISO mode

Reading transportProperties

Reading field p

Reading field U

Reading/calculating face flux field phi


Starting time loop

Time = 2e-05

Courant Number mean: 0 max: 0
DILUPBiCGStab:  Solving for Ux, Initial residual = 1, Final residual = 0.00248729, No Iterations 5
DILUPBiCGStab:  Solving for Uy:  solution singularity
DILUPBiCGStab:  Solving for Uz:  solution singularity
linear solve U 22098479
[OGL LOG][Proc: 0]global_index_init : 2050 mu s
[OGL LOG][Proc: 0]global_index_init : 1 mu s
[OGL LOG][Proc: 0]init_host_sparsity_pattern : 7365220162 mu s
[OGL LOG][Proc: 0]update_host_matrix_data : 860333 mu s
[OGL LOG][Proc: 0]convert_coo_to_csr : 3310232 mu s
[OGL LOG][Proc: 0]gather_initGuess : 4 mu s
[OGL LOG][Proc: 0]gather_RHS : 0 mu s
[OGL LOG][Proc: 0]gather_global_matrix : 1 mu s
[OGL LOG][Proc: 0]init_precond : 82 mu s
[OGL LOG][Proc: 0]generate_solver : 9 mu s
[OGL LOG][Proc: 0]solve : 33204488 mu s
nonecudaGKOCG:  Solving for p, Initial residual = 1, Final residual = 9.84599e-05, No Iterations 3978
linear solve p -1168824511
time step continuity errors : sum local = 1.70872e-10, global = 4.36402e-23, cumulative = 4.36402e-23
[OGL LOG][Proc: 0]global_index_init : 39 mu s
[OGL LOG][Proc: 0]global_index_init : 0 mu s
[OGL LOG][Proc: 0]update_host_matrix_data : 869860 mu s
[OGL LOG][Proc: 0]gather_initGuess : 1 mu s
[OGL LOG][Proc: 0]gather_RHS : 0 mu s
[OGL LOG][Proc: 0]gather_global_matrix : 0 mu s
[OGL LOG][Proc: 0]init_precond : 63 mu s
[OGL LOG][Proc: 0]generate_solver : 0 mu s
[OGL LOG][Proc: 0]solve : 29615024 mu s
nonecudaGKOCG:  Solving for p, Initial residual = 1, Final residual = 9.44006e-05, No Iterations 3658
linear solve p 46578695
time step continuity errors : sum local = 5.27226e-11, global = 5.56832e-24, cumulative = 4.92085e-23
ExecutionTime = 7610.97 s  ClockTime = 7630 s

Time = 4e-05

Courant Number mean: 0.00105499 max: 0.0776371
DILUPBiCGStab:  Solving for Ux, Initial residual = 0.150273, Final residual = 0.00156625, No Iterations 5
DILUPBiCGStab:  Solving for Uy, Initial residual = 0.356216, Final residual = 0.00162688, No Iterations 5
DILUPBiCGStab:  Solving for Uz, Initial residual = 0.994257, Final residual = 0.00734215, No Iterations 5
linear solve U 44501710
[OGL LOG][Proc: 0]global_index_init : 6 mu s
[OGL LOG][Proc: 0]global_index_init : 1 mu s
[OGL LOG][Proc: 0]update_host_matrix_data : 863941 mu s
[OGL LOG][Proc: 0]gather_initGuess : 2 mu s
[OGL LOG][Proc: 0]gather_RHS : 0 mu s
[OGL LOG][Proc: 0]gather_global_matrix : 0 mu s
[OGL LOG][Proc: 0]init_precond : 38 mu s
[OGL LOG][Proc: 0]generate_solver : 0 mu s
[OGL LOG][Proc: 0]solve : 31971404 mu s
nonecudaGKOCG:  Solving for p, Initial residual = 1, Final residual = 8.31569e-05, No Iterations 3943
linear solve p 48992242
time step continuity errors : sum local = 1.7617e-10, global = -4.02099e-23, cumulative = 8.99867e-24
[OGL LOG][Proc: 0]global_index_init : 6 mu s
[OGL LOG][Proc: 0]global_index_init : 0 mu s
[OGL LOG][Proc: 0]update_host_matrix_data : 866028 mu s
[OGL LOG][Proc: 0]gather_initGuess : 1 mu s
[OGL LOG][Proc: 0]gather_RHS : 0 mu s
[OGL LOG][Proc: 0]gather_global_matrix : 0 mu s
[OGL LOG][Proc: 0]init_precond : 46 mu s
[OGL LOG][Proc: 0]generate_solver : 0 mu s
[OGL LOG][Proc: 0]solve : 29178884 mu s
nonecudaGKOCG:  Solving for p, Initial residual = 1, Final residual = 4.71145e-05, No Iterations 3612
linear solve p 46175018
time step continuity errors : sum local = 2.82373e-11, global = -2.70488e-23, cumulative = -1.80502e-23
ExecutionTime = 7779.7 s  ClockTime = 7801 s

Time = 6e-05

Courant Number mean: 0.00160616 max: 0.0884731
DILUPBiCGStab:  Solving for Ux, Initial residual = 0.0624021, Final residual = 0.000425143, No Iterations 5
DILUPBiCGStab:  Solving for Uy, Initial residual = 0.140369, Final residual = 0.00036685, No Iterations 5
DILUPBiCGStab:  Solving for Uz, Initial residual = 0.637964, Final residual = 0.00541456, No Iterations 5
linear solve U 44302052
[OGL LOG][Proc: 0]global_index_init : 6 mu s
[OGL LOG][Proc: 0]global_index_init : 1 mu s
[OGL LOG][Proc: 0]update_host_matrix_data : 867207 mu s
[OGL LOG][Proc: 0]gather_initGuess : 1 mu s
[OGL LOG][Proc: 0]gather_RHS : 1 mu s
[OGL LOG][Proc: 0]gather_global_matrix : 0 mu s
[OGL LOG][Proc: 0]init_precond : 40 mu s
[OGL LOG][Proc: 0]generate_solver : 0 mu s
[OGL LOG][Proc: 0]solve : 31484443 mu s
nonecudaGKOCG:  Solving for p, Initial residual = 1, Final residual = 4.52218e-05, No Iterations 3889
linear solve p 48438079
time step continuity errors : sum local = 6.14357e-11, global = -6.66928e-23, cumulative = -8.47429e-23
[OGL LOG][Proc: 0]global_index_init : 7 mu s
[OGL LOG][Proc: 0]global_index_init : 1 mu s
[OGL LOG][Proc: 0]update_host_matrix_data : 865879 mu s
[OGL LOG][Proc: 0]gather_initGuess : 1 mu s
[OGL LOG][Proc: 0]gather_RHS : 0 mu s
[OGL LOG][Proc: 0]gather_global_matrix : 0 mu s
[OGL LOG][Proc: 0]init_precond : 52 mu s
[OGL LOG][Proc: 0]generate_solver : 1 mu s
[OGL LOG][Proc: 0]solve : 28841099 mu s
nonecudaGKOCG:  Solving for p, Initial residual = 1, Final residual = 7.35032e-05, No Iterations 3566
linear solve p 45810228
time step continuity errors : sum local = 4.08823e-11, global = -9.63831e-23, cumulative = -1.81126e-22
ExecutionTime = 7947.22 s  ClockTime = 7972 s

Time = 8e-05

Courant Number mean: 0.00199189 max: 0.091377
DILUPBiCGStab:  Solving for Ux, Initial residual = 0.0415187, Final residual = 0.000205561, No Iterations 5
DILUPBiCGStab:  Solving for Uy, Initial residual = 0.0887649, Final residual = 0.000224052, No Iterations 5
DILUPBiCGStab:  Solving for Uz, Initial residual = 0.161241, Final residual = 0.000959792, No Iterations 5
linear solve U 44455121
[OGL LOG][Proc: 0]global_index_init : 7 mu s
[OGL LOG][Proc: 0]global_index_init : 1 mu s
[OGL LOG][Proc: 0]update_host_matrix_data : 866519 mu s
[OGL LOG][Proc: 0]gather_initGuess : 1 mu s
[OGL LOG][Proc: 0]gather_RHS : 1 mu s
[OGL LOG][Proc: 0]gather_global_matrix : 0 mu s
[OGL LOG][Proc: 0]init_precond : 39 mu s
[OGL LOG][Proc: 0]generate_solver : 1 mu s
[OGL LOG][Proc: 0]solve : 31125718 mu s
nonecudaGKOCG:  Solving for p, Initial residual = 1, Final residual = 3.71661e-05, No Iterations 3835
linear solve p 48110705
time step continuity errors : sum local = 3.9464e-11, global = -2.16226e-23, cumulative = -2.02749e-22
[OGL LOG][Proc: 0]global_index_init : 7 mu s
[OGL LOG][Proc: 0]global_index_init : 0 mu s
[OGL LOG][Proc: 0]update_host_matrix_data : 866116 mu s
[OGL LOG][Proc: 0]gather_initGuess : 1 mu s
[OGL LOG][Proc: 0]gather_RHS : 0 mu s
[OGL LOG][Proc: 0]gather_global_matrix : 0 mu s
[OGL LOG][Proc: 0]init_precond : 49 mu s
[OGL LOG][Proc: 0]generate_solver : 0 mu s
[OGL LOG][Proc: 0]solve : 28574488 mu s
nonecudaGKOCG:  Solving for p, Initial residual = 1, Final residual = 6.74466e-05, No Iterations 3520
linear solve p 45605114
time step continuity errors : sum local = 3.82993e-11, global = -3.25014e-23, cumulative = -2.3525e-22
ExecutionTime = 8114.29 s  ClockTime = 8142 s

Time = 0.0001

Courant Number mean: 0.0023057 max: 0.0927862
DILUPBiCGStab:  Solving for Ux, Initial residual = 0.0318335, Final residual = 0.000114657, No Iterations 5
DILUPBiCGStab:  Solving for Uy, Initial residual = 0.0636534, Final residual = 0.000126859, No Iterations 5
DILUPBiCGStab:  Solving for Uz, Initial residual = 0.0904617, Final residual = 0.000465483, No Iterations 5
linear solve U 44524051
[OGL LOG][Proc: 0]global_index_init : 5 mu s
[OGL LOG][Proc: 0]global_index_init : 1 mu s
[OGL LOG][Proc: 0]update_host_matrix_data : 867292 mu s
[OGL LOG][Proc: 0]gather_initGuess : 1 mu s
[OGL LOG][Proc: 0]gather_RHS : 0 mu s
[OGL LOG][Proc: 0]gather_global_matrix : 0 mu s
[OGL LOG][Proc: 0]init_precond : 39 mu s
[OGL LOG][Proc: 0]generate_solver : 1 mu s
[OGL LOG][Proc: 0]solve : 30389860 mu s
nonecudaGKOCG:  Solving for p, Initial residual = 1, Final residual = 6.0618e-05, No Iterations 3781
linear solve p 47353108
time step continuity errors : sum local = 4.68335e-11, global = -4.31171e-23, cumulative = -2.78367e-22
[OGL LOG][Proc: 0]global_index_init : 8 mu s
[OGL LOG][Proc: 0]global_index_init : 1 mu s
[OGL LOG][Proc: 0]update_host_matrix_data : 868077 mu s
[OGL LOG][Proc: 0]gather_initGuess : 1 mu s
[OGL LOG][Proc: 0]gather_RHS : 0 mu s
[OGL LOG][Proc: 0]gather_global_matrix : 0 mu s
[OGL LOG][Proc: 0]init_precond : 47 mu s
[OGL LOG][Proc: 0]generate_solver : 1 mu s
[OGL LOG][Proc: 0]solve : 29348026 mu s
nonecudaGKOCG:  Solving for p, Initial residual = 1, Final residual = 2.18205e-05, No Iterations 3625
linear solve p 46348102
time step continuity errors : sum local = 1.22144e-11, global = -1.95749e-23, cumulative = -2.97942e-22
ExecutionTime = 8281.57 s  ClockTime = 8312 s

Time = 0.00012

Courant Number mean: 0.00257427 max: 0.0936631
DILUPBiCGStab:  Solving for Ux, Initial residual = 0.025943, Final residual = 8.34615e-05, No Iterations 5
DILUPBiCGStab:  Solving for Uy, Initial residual = 0.05007, Final residual = 6.02832e-05, No Iterations 5
DILUPBiCGStab:  Solving for Uz, Initial residual = 0.0796127, Final residual = 0.000395631, No Iterations 5
linear solve U 44284024
[OGL LOG][Proc: 0]global_index_init : 6 mu s
[OGL LOG][Proc: 0]global_index_init : 0 mu s
[OGL LOG][Proc: 0]update_host_matrix_data : 868570 mu s
[OGL LOG][Proc: 0]gather_initGuess : 1 mu s
[OGL LOG][Proc: 0]gather_RHS : 0 mu s
[OGL LOG][Proc: 0]gather_global_matrix : 0 mu s
[OGL LOG][Proc: 0]init_precond : 40 mu s
[OGL LOG][Proc: 0]generate_solver : 0 mu s
[OGL LOG][Proc: 0]solve : 30301215 mu s
nonecudaGKOCG:  Solving for p, Initial residual = 1, Final residual = 4.0117e-05, No Iterations 3771
linear solve p 47268402
time step continuity errors : sum local = 2.88119e-11, global = -4.59346e-23, cumulative = -3.43877e-22
[OGL LOG][Proc: 0]global_index_init : 6 mu s
[OGL LOG][Proc: 0]global_index_init : 0 mu s
[OGL LOG][Proc: 0]update_host_matrix_data : 865909 mu s
[OGL LOG][Proc: 0]gather_initGuess : 1 mu s
[OGL LOG][Proc: 0]gather_RHS : 0 mu s
[OGL LOG][Proc: 0]gather_global_matrix : 0 mu s
[OGL LOG][Proc: 0]init_precond : 49 mu s
[OGL LOG][Proc: 0]generate_solver : 0 mu s
[OGL LOG][Proc: 0]solve : 29151947 mu s
nonecudaGKOCG:  Solving for p, Initial residual = 1, Final residual = 3.43879e-05, No Iterations 3601
linear solve p 46160603
time step continuity errors : sum local = 1.92324e-11, global = -4.45067e-23, cumulative = -3.88383e-22
ExecutionTime = 8448.41 s  ClockTime = 8481 s

Time = 0.00014

Courant Number mean: 0.00281178 max: 0.094276
DILUPBiCGStab:  Solving for Ux, Initial residual = 0.0220239, Final residual = 5.74772e-05, No Iterations 5
DILUPBiCGStab:  Solving for Uy, Initial residual = 0.0411249, Final residual = 4.75632e-05, No Iterations 5
DILUPBiCGStab:  Solving for Uz, Initial residual = 0.0662458, Final residual = 0.000245258, No Iterations 5
linear solve U 44405592
[OGL LOG][Proc: 0]global_index_init : 7 mu s
[OGL LOG][Proc: 0]global_index_init : 0 mu s
[OGL LOG][Proc: 0]update_host_matrix_data : 865818 mu s
[OGL LOG][Proc: 0]gather_initGuess : 1 mu s
[OGL LOG][Proc: 0]gather_RHS : 0 mu s
[OGL LOG][Proc: 0]gather_global_matrix : 0 mu s
[OGL LOG][Proc: 0]init_precond : 39 mu s
[OGL LOG][Proc: 0]generate_solver : 0 mu s
[OGL LOG][Proc: 0]solve : 30238815 mu s
nonecudaGKOCG:  Solving for p, Initial residual = 1, Final residual = 4.49995e-05, No Iterations 3745
linear solve p 47194744
time step continuity errors : sum local = 2.94654e-11, global = -1.92302e-23, cumulative = -4.07614e-22
[OGL LOG][Proc: 0]global_index_init : 7 mu s
[OGL LOG][Proc: 0]global_index_init : 0 mu s
[OGL LOG][Proc: 0]update_host_matrix_data : 865247 mu s
[OGL LOG][Proc: 0]gather_initGuess : 1 mu s
[OGL LOG][Proc: 0]gather_RHS : 0 mu s
[OGL LOG][Proc: 0]gather_global_matrix : 0 mu s
[OGL LOG][Proc: 0]init_precond : 46 mu s
[OGL LOG][Proc: 0]generate_solver : 1 mu s
[OGL LOG][Proc: 0]solve : 28741289 mu s
nonecudaGKOCG:  Solving for p, Initial residual = 1, Final residual = 5.2251e-05, No Iterations 3577
linear solve p 45740420
time step continuity errors : sum local = 2.92194e-11, global = -4.75083e-23, cumulative = -4.55122e-22
ExecutionTime = 8614.91 s  ClockTime = 8650 s

Time = 0.00016

Courant Number mean: 0.003026 max: 0.0947355
DILUPBiCGStab:  Solving for Ux, Initial residual = 0.0191872, Final residual = 4.18762e-05, No Iterations 5
DILUPBiCGStab:  Solving for Uy, Initial residual = 0.0349306, Final residual = 2.44943e-05, No Iterations 5
DILUPBiCGStab:  Solving for Uz, Initial residual = 0.0588626, Final residual = 0.000155393, No Iterations 5
linear solve U 44324791
[OGL LOG][Proc: 0]global_index_init : 5 mu s
[OGL LOG][Proc: 0]global_index_init : 1 mu s
[OGL LOG][Proc: 0]update_host_matrix_data : 867249 mu s
[OGL LOG][Proc: 0]gather_initGuess : 1 mu s
[OGL LOG][Proc: 0]gather_RHS : 0 mu s
[OGL LOG][Proc: 0]gather_global_matrix : 0 mu s
[OGL LOG][Proc: 0]init_precond : 44 mu s
[OGL LOG][Proc: 0]generate_solver : 0 mu s
[OGL LOG][Proc: 0]solve : 30164644 mu s
nonecudaGKOCG:  Solving for p, Initial residual = 1, Final residual = 4.16275e-05, No Iterations 3719
linear solve p 47135979
time step continuity errors : sum local = 2.60123e-11, global = -6.40495e-24, cumulative = -4.61527e-22
[OGL LOG][Proc: 0]global_index_init : 6 mu s
[OGL LOG][Proc: 0]global_index_init : 0 mu s
[OGL LOG][Proc: 0]update_host_matrix_data : 864560 mu s
[OGL LOG][Proc: 0]gather_initGuess : 1 mu s
[OGL LOG][Proc: 0]gather_RHS : 0 mu s
[OGL LOG][Proc: 0]gather_global_matrix : 0 mu s
[OGL LOG][Proc: 0]init_precond : 46 mu s
[OGL LOG][Proc: 0]generate_solver : 0 mu s
[OGL LOG][Proc: 0]solve : 28477858 mu s
nonecudaGKOCG:  Solving for p, Initial residual = 1, Final residual = 7.47996e-05, No Iterations 3553
linear solve p 45448231
time step continuity errors : sum local = 4.17797e-11, global = -5.65822e-23, cumulative = -5.18109e-22
ExecutionTime = 8781.04 s  ClockTime = 8819 s

Time = 0.00018

Courant Number mean: 0.00322209 max: 0.0950965
DILUPBiCGStab:  Solving for Ux, Initial residual = 0.0170205, Final residual = 3.04795e-05, No Iterations 5
DILUPBiCGStab:  Solving for Uy, Initial residual = 0.0303523, Final residual = 2.26441e-05, No Iterations 5
DILUPBiCGStab:  Solving for Uz, Initial residual = 0.0522069, Final residual = 0.000117851, No Iterations 5
linear solve U 44405401
[OGL LOG][Proc: 0]global_index_init : 6 mu s
[OGL LOG][Proc: 0]global_index_init : 0 mu s
[OGL LOG][Proc: 0]update_host_matrix_data : 868092 mu s
[OGL LOG][Proc: 0]gather_initGuess : 1 mu s
[OGL LOG][Proc: 0]gather_RHS : 0 mu s
[OGL LOG][Proc: 0]gather_global_matrix : 0 mu s
[OGL LOG][Proc: 0]init_precond : 40 mu s
[OGL LOG][Proc: 0]generate_solver : 1 mu s
[OGL LOG][Proc: 0]solve : 29895547 mu s
nonecudaGKOCG:  Solving for p, Initial residual = 1, Final residual = 5.30396e-05, No Iterations 3693
linear solve p 46871927
time step continuity errors : sum local = 3.21096e-11, global = -1.3761e-22, cumulative = -6.55719e-22
[OGL LOG][Proc: 0]global_index_init : 6 mu s
[OGL LOG][Proc: 0]global_index_init : 1 mu s
[OGL LOG][Proc: 0]update_host_matrix_data : 866097 mu s
[OGL LOG][Proc: 0]gather_initGuess : 1 mu s
[OGL LOG][Proc: 0]gather_RHS : 1 mu s
[OGL LOG][Proc: 0]gather_global_matrix : 0 mu s
[OGL LOG][Proc: 0]init_precond : 55 mu s
[OGL LOG][Proc: 0]generate_solver : 0 mu s
[OGL LOG][Proc: 0]solve : 28477919 mu s
nonecudaGKOCG:  Solving for p, Initial residual = 1, Final residual = 8.72941e-05, No Iterations 3529
linear solve p 45459226
time step continuity errors : sum local = 4.87873e-11, global = 1.63155e-23, cumulative = -6.39403e-22
ExecutionTime = 8946.87 s  ClockTime = 8988 s

Time = 0.0002

Courant Number mean: 0.00340348 max: 0.0953898
DILUPBiCGStab:  Solving for Ux, Initial residual = 0.0153204, Final residual = 2.363e-05, No Iterations 5
DILUPBiCGStab:  Solving for Uy, Initial residual = 0.026825, Final residual = 1.45036e-05, No Iterations 5
DILUPBiCGStab:  Solving for Uz, Initial residual = 0.0471548, Final residual = 8.32241e-05, No Iterations 5
linear solve U 44412810
[OGL LOG][Proc: 0]global_index_init : 7 mu s
[OGL LOG][Proc: 0]global_index_init : 0 mu s
[OGL LOG][Proc: 0]update_host_matrix_data : 866141 mu s
[OGL LOG][Proc: 0]gather_initGuess : 1 mu s
[OGL LOG][Proc: 0]gather_RHS : 0 mu s
[OGL LOG][Proc: 0]gather_global_matrix : 0 mu s
[OGL LOG][Proc: 0]init_precond : 37 mu s
[OGL LOG][Proc: 0]generate_solver : 0 mu s
[OGL LOG][Proc: 0]solve : 29546184 mu s
nonecudaGKOCG:  Solving for p, Initial residual = 1, Final residual = 6.56615e-05, No Iterations 3667
linear solve p 46508407
time step continuity errors : sum local = 3.87744e-11, global = -2.26454e-23, cumulative = -6.62049e-22
[OGL LOG][Proc: 0]global_index_init : 6 mu s
[OGL LOG][Proc: 0]global_index_init : 1 mu s
[OGL LOG][Proc: 0]update_host_matrix_data : 867198 mu s
[OGL LOG][Proc: 0]gather_initGuess : 1 mu s
[OGL LOG][Proc: 0]gather_RHS : 0 mu s
[OGL LOG][Proc: 0]gather_global_matrix : 0 mu s
[OGL LOG][Proc: 0]init_precond : 46 mu s
[OGL LOG][Proc: 0]generate_solver : 0 mu s
[OGL LOG][Proc: 0]solve : 28407554 mu s
nonecudaGKOCG:  Solving for p, Initial residual = 1, Final residual = 7.07911e-05, No Iterations 3505
linear solve p 45419692
time step continuity errors : sum local = 3.95777e-11, global = -3.46692e-23, cumulative = -6.96718e-22
ExecutionTime = 9112.29 s  ClockTime = 9156 s

End

Finalising parallel run
================================================================================


--> FOAM FATAL ERROR: (openfoam-2112)
attempt to run parallel on 1 processor

    From static bool Foam::UPstream::init(int&, char**&, bool)
    in file UPstream.C at line 297.

FOAM aborting

#0  Foam::error::printStack(Foam::Ostream&) at ??:?
#1  Foam::error::simpleExit(int, bool) at ??:?
#2  Foam::UPstream::init(int&, char**&, bool) at ??:?
#3  Foam::argList::argList(int&, char**&, bool, bool, bool) at ??:?
#4  ? at ??:?
#5  __libc_start_main in /lib64/libc.so.6
#6  ? at ??:?
[hkn0807:1344637] *** Process received signal ***
[hkn0807:1344637] Signal: Aborted (6)
[hkn0807:1344637] Signal code:  (-6)
[hkn0807:1344637] [ 0] /lib64/libpthread.so.0(+0x12b20)[0x15370b107b20]
[hkn0807:1344637] [ 1] /lib64/libc.so.6(gsignal+0x10f)[0x15370ad6737f]
[hkn0807:1344637] [ 2] /lib64/libc.so.6(abort+0x127)[0x15370ad51db5]
[hkn0807:1344637] [ 3] /home/hk-project-test-fine/eq4036/OpenFOAM/openfoam/platforms/linux64GccDPInt32Opt/lib/libOpenFOAM.so(_ZN4Foam5error10simpleExitEib+0x17a)[0x15370c2a9d8a]
[hkn0807:1344637] [ 4] /home/hk-project-test-fine/eq4036/OpenFOAM/openfoam/platforms/linux64GccDPInt32Opt/lib/sys-openmpi/libPstream.so(_ZN4Foam8UPstream4initERiRPPcb+0x1641)[0x15370ab258d1]
[hkn0807:1344637] [ 5] /home/hk-project-test-fine/eq4036/OpenFOAM/openfoam/platforms/linux64GccDPInt32Opt/lib/libOpenFOAM.so(_ZN4Foam7argListC1ERiRPPcbbb+0x9ef)[0x15370c2daedf]
[hkn0807:1344637] [ 6] icoFoam[0x42210b]
[hkn0807:1344637] [ 7] /lib64/libc.so.6(__libc_start_main+0xf3)[0x15370ad53493]
[hkn0807:1344637] [ 8] icoFoam[0x425cae]
[hkn0807:1344637] *** End of error message ***
--------------------------------------------------------------------------
Primary job  terminated normally, but 1 process returned
a non-zero exit code. Per user-direction, the job has been aborted.
--------------------------------------------------------------------------
--------------------------------------------------------------------------
mpirun noticed that process rank 0 with PID 1344637 on node hkn0807 exited on signal 6 (Aborted).
--------------------------------------------------------------------------

============================= JOB FEEDBACK =============================

Job ID: 1743416
Cluster: hk
User/Group: eq4036/hk-project-test-fine
State: FAILED (exit code 134)
Partition: accelerated
Nodes: 1
Cores per node: 152
Nodelist: hkn0807
CPU Utilized: 00:00:03
CPU Efficiency: 0.08% of 01:05:52 core-walltime
Job Wall-clock time: 00:00:26
Starttime: Tue May 17 07:38:40 2022
Endtime: Tue May 17 07:39:06 2022
Memory Utilized: 2.24 MB
Memory Efficiency: 0.00% of 0.00 MB
Energy Consumed: 4184 Joule / 1.16222222222222 Watthours
Average node power draw: 160.923076923077 Watt
hash: d2456a528f4e6eff56b4b189a0c467d0
[1652765943.270305] [hkn0807:1344637:0]           ib_md.c:1234 UCX  WARN  IB: ibv_fork_init() was disabled or failed, yet a fork() has been issued.
[1652765943.270317] [hkn0807:1344637:0]           ib_md.c:1235 UCX  WARN  IB: data corruption might occur when using registered memory.
[1652765943.298721] [hkn0807:1344637:0]           ib_md.c:1234 UCX  WARN  IB: ibv_fork_init() was disabled or failed, yet a fork() has been issued.
[1652765943.298730] [hkn0807:1344637:0]           ib_md.c:1235 UCX  WARN  IB: data corruption might occur when using registered memory.
[1652765943.322971] [hkn0807:1344637:0]           ib_md.c:1234 UCX  WARN  IB: ibv_fork_init() was disabled or failed, yet a fork() has been issued.
[1652765943.322979] [hkn0807:1344637:0]           ib_md.c:1235 UCX  WARN  IB: data corruption might occur when using registered memory.
[1652765943.342695] [hkn0807:1344637:0]           ib_md.c:1234 UCX  WARN  IB: ibv_fork_init() was disabled or failed, yet a fork() has been issued.
[1652765943.342703] [hkn0807:1344637:0]           ib_md.c:1235 UCX  WARN  IB: data corruption might occur when using registered memory.
[1652765943.366530] [hkn0807:1344637:0]           ib_md.c:1234 UCX  WARN  IB: ibv_fork_init() was disabled or failed, yet a fork() has been issued.
[1652765943.366537] [hkn0807:1344637:0]           ib_md.c:1235 UCX  WARN  IB: data corruption might occur when using registered memory.
[1652765943.385364] [hkn0807:1344637:0]           ib_md.c:1234 UCX  WARN  IB: ibv_fork_init() was disabled or failed, yet a fork() has been issued.
[1652765943.385372] [hkn0807:1344637:0]           ib_md.c:1235 UCX  WARN  IB: data corruption might occur when using registered memory.
[1652765943.404887] [hkn0807:1344637:0]           ib_md.c:1234 UCX  WARN  IB: ibv_fork_init() was disabled or failed, yet a fork() has been issued.
[1652765943.404895] [hkn0807:1344637:0]           ib_md.c:1235 UCX  WARN  IB: data corruption might occur when using registered memory.
[1652765943.427860] [hkn0807:1344637:0]           ib_md.c:1234 UCX  WARN  IB: ibv_fork_init() was disabled or failed, yet a fork() has been issued.
[1652765943.427868] [hkn0807:1344637:0]           ib_md.c:1235 UCX  WARN  IB: data corruption might occur when using registered memory.
[1652765943.446307] [hkn0807:1344637:0]           ib_md.c:1234 UCX  WARN  IB: ibv_fork_init() was disabled or failed, yet a fork() has been issued.
[1652765943.446315] [hkn0807:1344637:0]           ib_md.c:1235 UCX  WARN  IB: data corruption might occur when using registered memory.
================================================================================

============================= JOB FEEDBACK =============================

Job ID: 1743417
Cluster: hk
User/Group: eq4036/hk-project-test-fine
State: COMPLETED (exit code 0)
Partition: accelerated
Nodes: 4
Cores per node: 152
Nodelist: hkn[0808-0809,0811,0813]
CPU Utilized: 08:46:28
CPU Efficiency: 2.58% of 14-04:08:32 core-walltime
Job Wall-clock time: 00:33:34
Starttime: Tue May 17 07:38:40 2022
Endtime: Tue May 17 08:12:14 2022
Memory Utilized: 51.24 GB
Memory Efficiency: 0.00% of 0.00 MB
Energy Consumed: 6024554 Joule / 1673.48722222222 Watthours
Average node power draw: 2991.33763654419 Watt
hash: 39e14d0ecc3514c7a465c344debd2aac
/*---------------------------------------------------------------------------*\
| =========                 |                                                 |
| \\      /  F ield         | OpenFOAM: The Open Source CFD Toolbox           |
|  \\    /   O peration     | Version:  2112                                  |
|   \\  /    A nd           | Website:  www.openfoam.com                      |
|    \\/     M anipulation  |                                                 |
\*---------------------------------------------------------------------------*/
Build  : d44c8318f0-20220111 OPENFOAM=2112 version=v2112
Arch   : "LSB;label=32;scalar=64"
Exec   : icoFoam -parallel
Date   : May 17 2022
Time   : 07:39:04
Host   : hkn0808.localdomain
PID    : 2443592
I/O    : uncollated
Case   : /hkfs/home/project/hk-project-test-fine/eq4036/data/code/ogl_labbook/lidDrivenCavity/scaling/Variation_mesh/500/Variation_matrix_solver/CG_NoPrecond_CUDA/Variation_mpiRank_gko/16/base
nProcs : 16
Hosts  :
(
    (hkn0808.localdomain 4)
    (hkn0809.localdomain 4)
    (hkn0811.localdomain 4)
    (hkn0813.localdomain 4)
)
Pstream initialized with:
    floatTransfer      : 0
    nProcsSimpleSum    : 0
    commsType          : nonBlocking
    polling iterations : 0
trapFpe: Floating point exception trapping enabled (FOAM_SIGFPE).
fileModificationChecking : Monitoring run-time modified files using timeStampMaster (fileModificationSkew 5, maxFileModificationPolls 20)
allowSystemOperations : Allowing user-supplied system call operations

// * * * * * * * * * * * * * * * * * * * * * * * * * * * * * * * * * * * * * //
Create time

Create mesh for time = 0


PISO: Operating solver in PISO mode

Reading transportProperties

Reading field p

Reading field U

Reading/calculating face flux field phi


Starting time loop

Time = 2e-05

Courant Number mean: 0 max: 0
DILUPBiCGStab:  Solving for Ux, Initial residual = 1, Final residual = 0.0027948, No Iterations 5
DILUPBiCGStab:  Solving for Uy:  solution singularity
DILUPBiCGStab:  Solving for Uz:  solution singularity
linear solve U 5406867
[OGL LOG][Proc: 0]global_index_init : 20377 mu s
[OGL LOG][Proc: 0]global_index_init : 5 mu s
[OGL LOG][Proc: 0]init_host_sparsity_pattern : 1348942591 mu s
[OGL LOG][Proc: 0]update_host_matrix_data : 246087 mu s
[OGL LOG][Proc: 0]convert_coo_to_csr : 4013690 mu s
[OGL LOG][Proc: 0]gather_initGuess : 4 mu s
[OGL LOG][Proc: 0]gather_RHS : 0 mu s
[OGL LOG][Proc: 0]gather_global_matrix : 1 mu s
[OGL LOG][Proc: 0]init_precond : 159 mu s
[OGL LOG][Proc: 0]generate_solver : 33 mu s
[OGL LOG][Proc: 0]solve : 10715100 mu s
nonecudaGKOCG:  Solving for p, Initial residual = 1, Final residual = 9.88123e-05, No Iterations 3822
linear solve p 1550365416
time step continuity errors : sum local = 1.73577e-10, global = 1.3318e-22, cumulative = 1.3318e-22
[OGL LOG][Proc: 0]global_index_init : 14 mu s
[OGL LOG][Proc: 0]global_index_init : 2 mu s
[OGL LOG][Proc: 0]update_host_matrix_data : 217439 mu s
[OGL LOG][Proc: 0]gather_initGuess : 1 mu s
[OGL LOG][Proc: 0]gather_RHS : 0 mu s
[OGL LOG][Proc: 0]gather_global_matrix : 0 mu s
[OGL LOG][Proc: 0]init_precond : 34 mu s
[OGL LOG][Proc: 0]generate_solver : 0 mu s
[OGL LOG][Proc: 0]solve : 9567433 mu s
nonecudaGKOCG:  Solving for p, Initial residual = 1, Final residual = 3.37878e-05, No Iterations 3497
linear solve p 14757933
time step continuity errors : sum local = 1.89085e-11, global = -1.39636e-23, cumulative = 1.19216e-22
ExecutionTime = 1601.21 s  ClockTime = 1606 s

Time = 4e-05

Courant Number mean: 0.00105405 max: 0.0777033
DILUPBiCGStab:  Solving for Ux, Initial residual = 0.150295, Final residual = 0.00182751, No Iterations 5
DILUPBiCGStab:  Solving for Uy, Initial residual = 0.356466, Final residual = 0.00212008, No Iterations 5
DILUPBiCGStab:  Solving for Uz, Initial residual = 0.95904, Final residual = 0.00828146, No Iterations 5
linear solve U 10967155
[OGL LOG][Proc: 0]global_index_init : 20 mu s
[OGL LOG][Proc: 0]global_index_init : 2 mu s
[OGL LOG][Proc: 0]update_host_matrix_data : 217515 mu s
[OGL LOG][Proc: 0]gather_initGuess : 1 mu s
[OGL LOG][Proc: 0]gather_RHS : 0 mu s
[OGL LOG][Proc: 0]gather_global_matrix : 0 mu s
[OGL LOG][Proc: 0]init_precond : 47 mu s
[OGL LOG][Proc: 0]generate_solver : 0 mu s
[OGL LOG][Proc: 0]solve : 10601399 mu s
nonecudaGKOCG:  Solving for p, Initial residual = 1, Final residual = 1.90174e-05, No Iterations 3893
linear solve p 15795320
time step continuity errors : sum local = 4.21502e-11, global = -1.56465e-23, cumulative = 1.0357e-22
[OGL LOG][Proc: 0]global_index_init : 6 mu s
[OGL LOG][Proc: 0]global_index_init : 2 mu s
[OGL LOG][Proc: 0]update_host_matrix_data : 216143 mu s
[OGL LOG][Proc: 0]gather_initGuess : 1 mu s
[OGL LOG][Proc: 0]gather_RHS : 0 mu s
[OGL LOG][Proc: 0]gather_global_matrix : 0 mu s
[OGL LOG][Proc: 0]init_precond : 40 mu s
[OGL LOG][Proc: 0]generate_solver : 0 mu s
[OGL LOG][Proc: 0]solve : 8774753 mu s
nonecudaGKOCG:  Solving for p, Initial residual = 1, Final residual = 9.13685e-05, No Iterations 3256
linear solve p 13972170
time step continuity errors : sum local = 5.50358e-11, global = -2.28635e-24, cumulative = 1.01283e-22
ExecutionTime = 1648.02 s  ClockTime = 1655 s

Time = 6e-05

Courant Number mean: 0.00160517 max: 0.0884833
DILUPBiCGStab:  Solving for Ux, Initial residual = 0.0624421, Final residual = 0.000517304, No Iterations 5
DILUPBiCGStab:  Solving for Uy, Initial residual = 0.140505, Final residual = 0.000512142, No Iterations 5
DILUPBiCGStab:  Solving for Uz, Initial residual = 0.542243, Final residual = 0.00539, No Iterations 5
linear solve U 10943295
[OGL LOG][Proc: 0]global_index_init : 12 mu s
[OGL LOG][Proc: 0]global_index_init : 2 mu s
[OGL LOG][Proc: 0]update_host_matrix_data : 216260 mu s
[OGL LOG][Proc: 0]gather_initGuess : 0 mu s
[OGL LOG][Proc: 0]gather_RHS : 0 mu s
[OGL LOG][Proc: 0]gather_global_matrix : 0 mu s
[OGL LOG][Proc: 0]init_precond : 31 mu s
[OGL LOG][Proc: 0]generate_solver : 1 mu s
[OGL LOG][Proc: 0]solve : 9334909 mu s
nonecudaGKOCG:  Solving for p, Initial residual = 1, Final residual = 6.79037e-05, No Iterations 3511
linear solve p 14522071
time step continuity errors : sum local = 9.44327e-11, global = -1.03797e-22, cumulative = -2.51332e-24
[OGL LOG][Proc: 0]global_index_init : 14 mu s
[OGL LOG][Proc: 0]global_index_init : 2 mu s
[OGL LOG][Proc: 0]update_host_matrix_data : 216345 mu s
[OGL LOG][Proc: 0]gather_initGuess : 1 mu s
[OGL LOG][Proc: 0]gather_RHS : 0 mu s
[OGL LOG][Proc: 0]gather_global_matrix : 0 mu s
[OGL LOG][Proc: 0]init_precond : 30 mu s
[OGL LOG][Proc: 0]generate_solver : 1 mu s
[OGL LOG][Proc: 0]solve : 9159853 mu s
nonecudaGKOCG:  Solving for p, Initial residual = 1, Final residual = 5.08979e-05, No Iterations 3361
linear solve p 14348626
time step continuity errors : sum local = 2.83559e-11, global = -3.60542e-23, cumulative = -3.85675e-23
ExecutionTime = 1693.86 s  ClockTime = 1703 s

Time = 8e-05

Courant Number mean: 0.00199082 max: 0.0913921
DILUPBiCGStab:  Solving for Ux, Initial residual = 0.0415469, Final residual = 0.000261709, No Iterations 5
DILUPBiCGStab:  Solving for Uy, Initial residual = 0.0888479, Final residual = 0.000310506, No Iterations 5
DILUPBiCGStab:  Solving for Uz, Initial residual = 0.161458, Final residual = 0.00130418, No Iterations 5
linear solve U 10928335
[OGL LOG][Proc: 0]global_index_init : 15 mu s
[OGL LOG][Proc: 0]global_index_init : 2 mu s
[OGL LOG][Proc: 0]update_host_matrix_data : 216746 mu s
[OGL LOG][Proc: 0]gather_initGuess : 1 mu s
[OGL LOG][Proc: 0]gather_RHS : 0 mu s
[OGL LOG][Proc: 0]gather_global_matrix : 0 mu s
[OGL LOG][Proc: 0]init_precond : 31 mu s
[OGL LOG][Proc: 0]generate_solver : 1 mu s
[OGL LOG][Proc: 0]solve : 9063585 mu s
nonecudaGKOCG:  Solving for p, Initial residual = 1, Final residual = 9.14556e-05, No Iterations 3351
linear solve p 14254875
time step continuity errors : sum local = 9.94929e-11, global = -9.05264e-23, cumulative = -1.29094e-22
[OGL LOG][Proc: 0]global_index_init : 13 mu s
[OGL LOG][Proc: 0]global_index_init : 2 mu s
[OGL LOG][Proc: 0]update_host_matrix_data : 216258 mu s
[OGL LOG][Proc: 0]gather_initGuess : 1 mu s
[OGL LOG][Proc: 0]gather_RHS : 0 mu s
[OGL LOG][Proc: 0]gather_global_matrix : 0 mu s
[OGL LOG][Proc: 0]init_precond : 30 mu s
[OGL LOG][Proc: 0]generate_solver : 0 mu s
[OGL LOG][Proc: 0]solve : 7152731 mu s
nonecudaGKOCG:  Solving for p, Initial residual = 1, Final residual = 6.63846e-05, No Iterations 2681
linear solve p 12346463
time step continuity errors : sum local = 3.8023e-11, global = -9.83303e-23, cumulative = -2.27424e-22
ExecutionTime = 1737.87 s  ClockTime = 1748 s

Time = 0.0001

Courant Number mean: 0.00230459 max: 0.0927901
DILUPBiCGStab:  Solving for Ux, Initial residual = 0.0318563, Final residual = 0.000149377, No Iterations 5
DILUPBiCGStab:  Solving for Uy, Initial residual = 0.063714, Final residual = 0.000178182, No Iterations 5
DILUPBiCGStab:  Solving for Uz, Initial residual = 0.091807, Final residual = 0.000705378, No Iterations 5
linear solve U 10927999
[OGL LOG][Proc: 0]global_index_init : 15 mu s
[OGL LOG][Proc: 0]global_index_init : 2 mu s
[OGL LOG][Proc: 0]update_host_matrix_data : 216517 mu s
[OGL LOG][Proc: 0]gather_initGuess : 1 mu s
[OGL LOG][Proc: 0]gather_RHS : 0 mu s
[OGL LOG][Proc: 0]gather_global_matrix : 0 mu s
[OGL LOG][Proc: 0]init_precond : 31 mu s
[OGL LOG][Proc: 0]generate_solver : 0 mu s
[OGL LOG][Proc: 0]solve : 5977651 mu s
nonecudaGKOCG:  Solving for p, Initial residual = 1, Final residual = 5.6886e-06, No Iterations 2248
linear solve p 11173698
time step continuity errors : sum local = 4.88249e-12, global = 4.87209e-24, cumulative = -2.22552e-22
[OGL LOG][Proc: 0]global_index_init : 13 mu s
[OGL LOG][Proc: 0]global_index_init : 2 mu s
[OGL LOG][Proc: 0]update_host_matrix_data : 215770 mu s
[OGL LOG][Proc: 0]gather_initGuess : 1 mu s
[OGL LOG][Proc: 0]gather_RHS : 0 mu s
[OGL LOG][Proc: 0]gather_global_matrix : 0 mu s
[OGL LOG][Proc: 0]init_precond : 31 mu s
[OGL LOG][Proc: 0]generate_solver : 1 mu s
[OGL LOG][Proc: 0]solve : 5190380 mu s
nonecudaGKOCG:  Solving for p, Initial residual = 1, Final residual = 2.28203e-05, No Iterations 1870
linear solve p 10380810
time step continuity errors : sum local = 1.30171e-11, global = -9.1341e-23, cumulative = -3.13893e-22
ExecutionTime = 1777.52 s  ClockTime = 1789 s

Time = 0.00012

Courant Number mean: 0.00257313 max: 0.0936664
DILUPBiCGStab:  Solving for Ux, Initial residual = 0.025961, Final residual = 9.81633e-05, No Iterations 5
DILUPBiCGStab:  Solving for Uy, Initial residual = 0.0501165, Final residual = 0.000104563, No Iterations 5
DILUPBiCGStab:  Solving for Uz, Initial residual = 0.0805017, Final residual = 0.000592795, No Iterations 5
linear solve U 10919926
[OGL LOG][Proc: 0]global_index_init : 16 mu s
[OGL LOG][Proc: 0]global_index_init : 2 mu s
[OGL LOG][Proc: 0]update_host_matrix_data : 216441 mu s
[OGL LOG][Proc: 0]gather_initGuess : 1 mu s
[OGL LOG][Proc: 0]gather_RHS : 0 mu s
[OGL LOG][Proc: 0]gather_global_matrix : 0 mu s
[OGL LOG][Proc: 0]init_precond : 31 mu s
[OGL LOG][Proc: 0]generate_solver : 0 mu s
[OGL LOG][Proc: 0]solve : 4857416 mu s
nonecudaGKOCG:  Solving for p, Initial residual = 1, Final residual = 8.06437e-05, No Iterations 1777
linear solve p 10055375
time step continuity errors : sum local = 5.91168e-11, global = -1.93139e-23, cumulative = -3.33207e-22
[OGL LOG][Proc: 0]global_index_init : 14 mu s
[OGL LOG][Proc: 0]global_index_init : 2 mu s
[OGL LOG][Proc: 0]update_host_matrix_data : 216454 mu s
[OGL LOG][Proc: 0]gather_initGuess : 1 mu s
[OGL LOG][Proc: 0]gather_RHS : 0 mu s
[OGL LOG][Proc: 0]gather_global_matrix : 0 mu s
[OGL LOG][Proc: 0]init_precond : 33 mu s
[OGL LOG][Proc: 0]generate_solver : 1 mu s
[OGL LOG][Proc: 0]solve : 4614541 mu s
nonecudaGKOCG:  Solving for p, Initial residual = 1, Final residual = 8.57199e-05, No Iterations 1705
linear solve p 9808471
time step continuity errors : sum local = 4.82511e-11, global = -1.22472e-22, cumulative = -4.55679e-22
ExecutionTime = 1815.54 s  ClockTime = 1828 s

Time = 0.00014

Courant Number mean: 0.00281064 max: 0.0942759
DILUPBiCGStab:  Solving for Ux, Initial residual = 0.0220386, Final residual = 6.42412e-05, No Iterations 5
DILUPBiCGStab:  Solving for Uy, Initial residual = 0.0411618, Final residual = 8.52968e-05, No Iterations 5
DILUPBiCGStab:  Solving for Uz, Initial residual = 0.0670687, Final residual = 0.000386579, No Iterations 5
linear solve U 10917076
[OGL LOG][Proc: 0]global_index_init : 19 mu s
[OGL LOG][Proc: 0]global_index_init : 2 mu s
[OGL LOG][Proc: 0]update_host_matrix_data : 225372 mu s
[OGL LOG][Proc: 0]gather_initGuess : 1 mu s
[OGL LOG][Proc: 0]gather_RHS : 0 mu s
[OGL LOG][Proc: 0]gather_global_matrix : 0 mu s
[OGL LOG][Proc: 0]init_precond : 38 mu s
[OGL LOG][Proc: 0]generate_solver : 0 mu s
[OGL LOG][Proc: 0]solve : 4734984 mu s
nonecudaGKOCG:  Solving for p, Initial residual = 1, Final residual = 8.50093e-05, No Iterations 1769
linear solve p 9940245
time step continuity errors : sum local = 5.68865e-11, global = -5.02269e-23, cumulative = -5.05905e-22
[OGL LOG][Proc: 0]global_index_init : 14 mu s
[OGL LOG][Proc: 0]global_index_init : 2 mu s
[OGL LOG][Proc: 0]update_host_matrix_data : 216760 mu s
[OGL LOG][Proc: 0]gather_initGuess : 1 mu s
[OGL LOG][Proc: 0]gather_RHS : 0 mu s
[OGL LOG][Proc: 0]gather_global_matrix : 0 mu s
[OGL LOG][Proc: 0]init_precond : 35 mu s
[OGL LOG][Proc: 0]generate_solver : 1 mu s
[OGL LOG][Proc: 0]solve : 4675870 mu s
nonecudaGKOCG:  Solving for p, Initial residual = 1, Final residual = 5.32582e-05, No Iterations 1751
linear solve p 9876763
time step continuity errors : sum local = 2.99802e-11, global = -3.23185e-23, cumulative = -5.38224e-22
ExecutionTime = 1853.41 s  ClockTime = 1867 s

Time = 0.00016

Courant Number mean: 0.00302486 max: 0.0947348
DILUPBiCGStab:  Solving for Ux, Initial residual = 0.0191991, Final residual = 4.61227e-05, No Iterations 5
DILUPBiCGStab:  Solving for Uy, Initial residual = 0.0349606, Final residual = 4.68227e-05, No Iterations 5
DILUPBiCGStab:  Solving for Uz, Initial residual = 0.0595454, Final residual = 0.000290635, No Iterations 5
linear solve U 10933635
[OGL LOG][Proc: 0]global_index_init : 17 mu s
[OGL LOG][Proc: 0]global_index_init : 2 mu s
[OGL LOG][Proc: 0]update_host_matrix_data : 215766 mu s
[OGL LOG][Proc: 0]gather_initGuess : 1 mu s
[OGL LOG][Proc: 0]gather_RHS : 0 mu s
[OGL LOG][Proc: 0]gather_global_matrix : 0 mu s
[OGL LOG][Proc: 0]init_precond : 31 mu s
[OGL LOG][Proc: 0]generate_solver : 1 mu s
[OGL LOG][Proc: 0]solve : 4686180 mu s
nonecudaGKOCG:  Solving for p, Initial residual = 1, Final residual = 7.89845e-05, No Iterations 1751
linear solve p 9878250
time step continuity errors : sum local = 5.03332e-11, global = -1.44841e-22, cumulative = -6.83065e-22
[OGL LOG][Proc: 0]global_index_init : 21 mu s
[OGL LOG][Proc: 0]global_index_init : 2 mu s
[OGL LOG][Proc: 0]update_host_matrix_data : 215632 mu s
[OGL LOG][Proc: 0]gather_initGuess : 1 mu s
[OGL LOG][Proc: 0]gather_RHS : 0 mu s
[OGL LOG][Proc: 0]gather_global_matrix : 0 mu s
[OGL LOG][Proc: 0]init_precond : 44 mu s
[OGL LOG][Proc: 0]generate_solver : 0 mu s
[OGL LOG][Proc: 0]solve : 4859319 mu s
nonecudaGKOCG:  Solving for p, Initial residual = 1, Final residual = 5.33054e-05, No Iterations 1751
linear solve p 10052998
time step continuity errors : sum local = 3.00675e-11, global = -2.62066e-23, cumulative = -7.09271e-22
ExecutionTime = 1891.64 s  ClockTime = 1906 s

Time = 0.00018

Courant Number mean: 0.00322097 max: 0.0950954
DILUPBiCGStab:  Solving for Ux, Initial residual = 0.0170305, Final residual = 3.4869e-05, No Iterations 5
DILUPBiCGStab:  Solving for Uy, Initial residual = 0.0303771, Final residual = 4.18141e-05, No Iterations 5
DILUPBiCGStab:  Solving for Uz, Initial residual = 0.0528382, Final residual = 0.000228163, No Iterations 5
linear solve U 10952417
[OGL LOG][Proc: 0]global_index_init : 15 mu s
[OGL LOG][Proc: 0]global_index_init : 2 mu s
[OGL LOG][Proc: 0]update_host_matrix_data : 216326 mu s
[OGL LOG][Proc: 0]gather_initGuess : 1 mu s
[OGL LOG][Proc: 0]gather_RHS : 0 mu s
[OGL LOG][Proc: 0]gather_global_matrix : 0 mu s
[OGL LOG][Proc: 0]init_precond : 33 mu s
[OGL LOG][Proc: 0]generate_solver : 1 mu s
[OGL LOG][Proc: 0]solve : 4690455 mu s
nonecudaGKOCG:  Solving for p, Initial residual = 1, Final residual = 6.26764e-05, No Iterations 1751
linear solve p 9882361
time step continuity errors : sum local = 3.88166e-11, global = -2.6347e-23, cumulative = -7.35618e-22
[OGL LOG][Proc: 0]global_index_init : 13 mu s
[OGL LOG][Proc: 0]global_index_init : 2 mu s
[OGL LOG][Proc: 0]update_host_matrix_data : 216576 mu s
[OGL LOG][Proc: 0]gather_initGuess : 1 mu s
[OGL LOG][Proc: 0]gather_RHS : 0 mu s
[OGL LOG][Proc: 0]gather_global_matrix : 0 mu s
[OGL LOG][Proc: 0]init_precond : 31 mu s
[OGL LOG][Proc: 0]generate_solver : 0 mu s
[OGL LOG][Proc: 0]solve : 4693316 mu s
nonecudaGKOCG:  Solving for p, Initial residual = 1, Final residual = 5.32462e-05, No Iterations 1751
linear solve p 9889668
time step continuity errors : sum local = 2.99017e-11, global = -4.45941e-23, cumulative = -7.80212e-22
ExecutionTime = 1929.59 s  ClockTime = 1945 s

Time = 0.0002

Courant Number mean: 0.00340237 max: 0.0953888
DILUPBiCGStab:  Solving for Ux, Initial residual = 0.0153289, Final residual = 2.78232e-05, No Iterations 5
DILUPBiCGStab:  Solving for Uy, Initial residual = 0.0268461, Final residual = 3.10259e-05, No Iterations 5
DILUPBiCGStab:  Solving for Uz, Initial residual = 0.0477932, Final residual = 0.000167328, No Iterations 5
linear solve U 10986223
[OGL LOG][Proc: 0]global_index_init : 14 mu s
[OGL LOG][Proc: 0]global_index_init : 2 mu s
[OGL LOG][Proc: 0]update_host_matrix_data : 216280 mu s
[OGL LOG][Proc: 0]gather_initGuess : 1 mu s
[OGL LOG][Proc: 0]gather_RHS : 0 mu s
[OGL LOG][Proc: 0]gather_global_matrix : 0 mu s
[OGL LOG][Proc: 0]init_precond : 32 mu s
[OGL LOG][Proc: 0]generate_solver : 1 mu s
[OGL LOG][Proc: 0]solve : 4510955 mu s
nonecudaGKOCG:  Solving for p, Initial residual = 1, Final residual = 9.37018e-05, No Iterations 1681
linear solve p 9704417
time step continuity errors : sum local = 5.65354e-11, global = -2.64963e-23, cumulative = -8.06708e-22
[OGL LOG][Proc: 0]global_index_init : 18 mu s
[OGL LOG][Proc: 0]global_index_init : 2 mu s
[OGL LOG][Proc: 0]update_host_matrix_data : 216398 mu s
[OGL LOG][Proc: 0]gather_initGuess : 1 mu s
[OGL LOG][Proc: 0]gather_RHS : 0 mu s
[OGL LOG][Proc: 0]gather_global_matrix : 0 mu s
[OGL LOG][Proc: 0]init_precond : 34 mu s
[OGL LOG][Proc: 0]generate_solver : 1 mu s
[OGL LOG][Proc: 0]solve : 4674560 mu s
nonecudaGKOCG:  Solving for p, Initial residual = 1, Final residual = 5.72636e-05, No Iterations 1743
linear solve p 9867593
time step continuity errors : sum local = 3.23268e-11, global = -1.29885e-23, cumulative = -8.19697e-22
ExecutionTime = 1967.35 s  ClockTime = 1984 s

End

Finalising parallel run
================================================================================

============================= JOB FEEDBACK =============================

Job ID: 1743418
Cluster: hk
User/Group: eq4036/hk-project-test-fine
State: COMPLETED (exit code 0)
Partition: accelerated
Nodes: 16
Cores per node: 152
Nodelist: hkn[0404,0521-0529,0531-0536]
CPU Utilized: 00:24:00
CPU Efficiency: 0.15% of 11-04:11:44 core-walltime
Job Wall-clock time: 00:06:37
Starttime: Tue May 17 07:38:40 2022
Endtime: Tue May 17 07:45:17 2022
Memory Utilized: 16.83 GB
Memory Efficiency: 0.00% of 0.00 MB
Energy Consumed: 4783650 Joule / 1328.79166666667 Watthours
Average node power draw: 12049.4962216625 Watt
hash: 30a9c63229fdb7291cf30d2cc0971b2f
/*---------------------------------------------------------------------------*\
| =========                 |                                                 |
| \\      /  F ield         | OpenFOAM: The Open Source CFD Toolbox           |
|  \\    /   O peration     | Version:  2112                                  |
|   \\  /    A nd           | Website:  www.openfoam.com                      |
|    \\/     M anipulation  |                                                 |
\*---------------------------------------------------------------------------*/
Build  : d44c8318f0-20220111 OPENFOAM=2112 version=v2112
Arch   : "LSB;label=32;scalar=64"
Exec   : icoFoam -parallel
Date   : May 17 2022
Time   : 07:39:04
Host   : hkn0404.localdomain
PID    : 3388433
I/O    : uncollated
Case   : /hkfs/home/project/hk-project-test-fine/eq4036/data/code/ogl_labbook/lidDrivenCavity/scaling/Variation_mesh/500/Variation_matrix_solver/CG_NoPrecond_CUDA/Variation_mpiRank_gko/64/base
nProcs : 64
Hosts  :
(
    (hkn0404.localdomain 4)
    (hkn0521.localdomain 4)
    (hkn0522.localdomain 4)
    (hkn0523.localdomain 4)
    (hkn0524.localdomain 4)
    (hkn0525.localdomain 4)
    (hkn0526.localdomain 4)
    (hkn0527.localdomain 4)
    (hkn0528.localdomain 4)
    (hkn0529.localdomain 4)
    (hkn0531.localdomain 4)
    (hkn0532.localdomain 4)
    (hkn0533.localdomain 4)
    (hkn0534.localdomain 4)
    (hkn0535.localdomain 4)
    (hkn0536.localdomain 4)
)
Pstream initialized with:
    floatTransfer      : 0
    nProcsSimpleSum    : 0
    commsType          : nonBlocking
    polling iterations : 0
trapFpe: Floating point exception trapping enabled (FOAM_SIGFPE).
fileModificationChecking : Monitoring run-time modified files using timeStampMaster (fileModificationSkew 5, maxFileModificationPolls 20)
allowSystemOperations : Allowing user-supplied system call operations

// * * * * * * * * * * * * * * * * * * * * * * * * * * * * * * * * * * * * * //
Create time

Create mesh for time = 0


PISO: Operating solver in PISO mode

Reading transportProperties

Reading field p

Reading field U

Reading/calculating face flux field phi


Starting time loop

Time = 2e-05

Courant Number mean: 0 max: 0
DILUPBiCGStab:  Solving for Ux, Initial residual = 1, Final residual = 0.00305561, No Iterations 5
DILUPBiCGStab:  Solving for Uy:  solution singularity
DILUPBiCGStab:  Solving for Uz:  solution singularity
linear solve U 1339439
[OGL LOG][Proc: 0]global_index_init : 91516 mu s
[OGL LOG][Proc: 0]global_index_init : 33 mu s
[OGL LOG][Proc: 0]init_host_sparsity_pattern : 127516910 mu s
[OGL LOG][Proc: 0]update_host_matrix_data : 61164 mu s
[OGL LOG][Proc: 0]convert_coo_to_csr : 4170529 mu s
[OGL LOG][Proc: 0]gather_initGuess : 4 mu s
[OGL LOG][Proc: 0]gather_RHS : 0 mu s
[OGL LOG][Proc: 0]gather_global_matrix : 1 mu s
[OGL LOG][Proc: 0]init_precond : 81 mu s
[OGL LOG][Proc: 0]generate_solver : 10 mu s
[OGL LOG][Proc: 0]solve : 5339201 mu s
nonecudaGKOCG:  Solving for p, Initial residual = 1, Final residual = 9.95009e-05, No Iterations 3854
linear solve p 187962285
time step continuity errors : sum local = 1.79518e-10, global = 1.18812e-22, cumulative = 1.18812e-22
[OGL LOG][Proc: 0]global_index_init : 53 mu s
[OGL LOG][Proc: 0]global_index_init : 21 mu s
[OGL LOG][Proc: 0]update_host_matrix_data : 46948 mu s
[OGL LOG][Proc: 0]gather_initGuess : 1 mu s
[OGL LOG][Proc: 0]gather_RHS : 0 mu s
[OGL LOG][Proc: 0]gather_global_matrix : 0 mu s
[OGL LOG][Proc: 0]init_precond : 34 mu s
[OGL LOG][Proc: 0]generate_solver : 0 mu s
[OGL LOG][Proc: 0]solve : 4421199 mu s
nonecudaGKOCG:  Solving for p, Initial residual = 1, Final residual = 8.30567e-05, No Iterations 3697
linear solve p 6637856
time step continuity errors : sum local = 4.66744e-11, global = -3.00207e-23, cumulative = 8.87916e-23
ExecutionTime = 203.3 s  ClockTime = 205 s

Time = 4e-05

Courant Number mean: 0.00105331 max: 0.0776866
DILUPBiCGStab:  Solving for Ux, Initial residual = 0.15032, Final residual = 0.00202657, No Iterations 5
DILUPBiCGStab:  Solving for Uy, Initial residual = 0.35663, Final residual = 0.00243621, No Iterations 5
DILUPBiCGStab:  Solving for Uz, Initial residual = 0.934139, Final residual = 0.00940367, No Iterations 5
linear solve U 2686930
[OGL LOG][Proc: 0]global_index_init : 29 mu s
[OGL LOG][Proc: 0]global_index_init : 17 mu s
[OGL LOG][Proc: 0]update_host_matrix_data : 53266 mu s
[OGL LOG][Proc: 0]gather_initGuess : 1 mu s
[OGL LOG][Proc: 0]gather_RHS : 0 mu s
[OGL LOG][Proc: 0]gather_global_matrix : 0 mu s
[OGL LOG][Proc: 0]init_precond : 31 mu s
[OGL LOG][Proc: 0]generate_solver : 1 mu s
[OGL LOG][Proc: 0]solve : 4585362 mu s
nonecudaGKOCG:  Solving for p, Initial residual = 1, Final residual = 7.32185e-05, No Iterations 3823
linear solve p 6824355
time step continuity errors : sum local = 1.71881e-10, global = 1.63423e-24, cumulative = 9.04258e-23
[OGL LOG][Proc: 0]global_index_init : 28 mu s
[OGL LOG][Proc: 0]global_index_init : 19 mu s
[OGL LOG][Proc: 0]update_host_matrix_data : 47464 mu s
[OGL LOG][Proc: 0]gather_initGuess : 1 mu s
[OGL LOG][Proc: 0]gather_RHS : 0 mu s
[OGL LOG][Proc: 0]gather_global_matrix : 0 mu s
[OGL LOG][Proc: 0]init_precond : 31 mu s
[OGL LOG][Proc: 0]generate_solver : 1 mu s
[OGL LOG][Proc: 0]solve : 4508571 mu s
nonecudaGKOCG:  Solving for p, Initial residual = 1, Final residual = 6.17605e-05, No Iterations 3649
linear solve p 6731652
time step continuity errors : sum local = 3.75323e-11, global = -9.20373e-24, cumulative = 8.12221e-23
ExecutionTime = 220.18 s  ClockTime = 224 s

Time = 6e-05

Courant Number mean: 0.00160439 max: 0.0884785
DILUPBiCGStab:  Solving for Ux, Initial residual = 0.0624778, Final residual = 0.00059046, No Iterations 5
DILUPBiCGStab:  Solving for Uy, Initial residual = 0.140576, Final residual = 0.000624468, No Iterations 5
DILUPBiCGStab:  Solving for Uz, Initial residual = 0.479196, Final residual = 0.00523193, No Iterations 5
linear solve U 2684828
[OGL LOG][Proc: 0]global_index_init : 27 mu s
[OGL LOG][Proc: 0]global_index_init : 23 mu s
[OGL LOG][Proc: 0]update_host_matrix_data : 53588 mu s
[OGL LOG][Proc: 0]gather_initGuess : 1 mu s
[OGL LOG][Proc: 0]gather_RHS : 0 mu s
[OGL LOG][Proc: 0]gather_global_matrix : 0 mu s
[OGL LOG][Proc: 0]init_precond : 30 mu s
[OGL LOG][Proc: 0]generate_solver : 0 mu s
[OGL LOG][Proc: 0]solve : 4685754 mu s
nonecudaGKOCG:  Solving for p, Initial residual = 1, Final residual = 3.04218e-05, No Iterations 3916
linear solve p 6912723
time step continuity errors : sum local = 4.35718e-11, global = -3.56897e-23, cumulative = 4.55324e-23
[OGL LOG][Proc: 0]global_index_init : 35 mu s
[OGL LOG][Proc: 0]global_index_init : 16 mu s
[OGL LOG][Proc: 0]update_host_matrix_data : 47157 mu s
[OGL LOG][Proc: 0]gather_initGuess : 1 mu s
[OGL LOG][Proc: 0]gather_RHS : 0 mu s
[OGL LOG][Proc: 0]gather_global_matrix : 0 mu s
[OGL LOG][Proc: 0]init_precond : 30 mu s
[OGL LOG][Proc: 0]generate_solver : 1 mu s
[OGL LOG][Proc: 0]solve : 4484785 mu s
nonecudaGKOCG:  Solving for p, Initial residual = 1, Final residual = 2.23299e-05, No Iterations 3745
linear solve p 6705660
time step continuity errors : sum local = 1.24856e-11, global = -2.57056e-23, cumulative = 1.98268e-23
ExecutionTime = 237.25 s  ClockTime = 242 s

Time = 8e-05

Courant Number mean: 0.00199004 max: 0.0913876
DILUPBiCGStab:  Solving for Ux, Initial residual = 0.0415711, Final residual = 0.000294534, No Iterations 5
DILUPBiCGStab:  Solving for Uy, Initial residual = 0.0888876, Final residual = 0.000366614, No Iterations 5
DILUPBiCGStab:  Solving for Uz, Initial residual = 0.164022, Final residual = 0.00144986, No Iterations 5
linear solve U 2685558
[OGL LOG][Proc: 0]global_index_init : 29 mu s
[OGL LOG][Proc: 0]global_index_init : 22 mu s
[OGL LOG][Proc: 0]update_host_matrix_data : 53020 mu s
[OGL LOG][Proc: 0]gather_initGuess : 1 mu s
[OGL LOG][Proc: 0]gather_RHS : 0 mu s
[OGL LOG][Proc: 0]gather_global_matrix : 0 mu s
[OGL LOG][Proc: 0]init_precond : 31 mu s
[OGL LOG][Proc: 0]generate_solver : 0 mu s
[OGL LOG][Proc: 0]solve : 4487922 mu s
nonecudaGKOCG:  Solving for p, Initial residual = 1, Final residual = 5.17565e-05, No Iterations 3726
linear solve p 6714957
time step continuity errors : sum local = 5.80572e-11, global = -1.17786e-22, cumulative = -9.79596e-23
[OGL LOG][Proc: 0]global_index_init : 35 mu s
[OGL LOG][Proc: 0]global_index_init : 18 mu s
[OGL LOG][Proc: 0]update_host_matrix_data : 46816 mu s
[OGL LOG][Proc: 0]gather_initGuess : 1 mu s
[OGL LOG][Proc: 0]gather_RHS : 0 mu s
[OGL LOG][Proc: 0]gather_global_matrix : 0 mu s
[OGL LOG][Proc: 0]init_precond : 32 mu s
[OGL LOG][Proc: 0]generate_solver : 0 mu s
[OGL LOG][Proc: 0]solve : 4471835 mu s
nonecudaGKOCG:  Solving for p, Initial residual = 1, Final residual = 2.20241e-05, No Iterations 3726
linear solve p 6699725
time step continuity errors : sum local = 1.25622e-11, global = -8.41563e-23, cumulative = -1.82116e-22
ExecutionTime = 254.19 s  ClockTime = 260 s

Time = 0.0001

Courant Number mean: 0.00230382 max: 0.0927865
DILUPBiCGStab:  Solving for Ux, Initial residual = 0.0318744, Final residual = 0.00016777, No Iterations 5
DILUPBiCGStab:  Solving for Uy, Initial residual = 0.0637368, Final residual = 0.000222369, No Iterations 5
DILUPBiCGStab:  Solving for Uz, Initial residual = 0.0941092, Final residual = 0.000836502, No Iterations 5
linear solve U 2679343
[OGL LOG][Proc: 0]global_index_init : 35 mu s
[OGL LOG][Proc: 0]global_index_init : 16 mu s
[OGL LOG][Proc: 0]update_host_matrix_data : 53465 mu s
[OGL LOG][Proc: 0]gather_initGuess : 1 mu s
[OGL LOG][Proc: 0]gather_RHS : 0 mu s
[OGL LOG][Proc: 0]gather_global_matrix : 0 mu s
[OGL LOG][Proc: 0]init_precond : 31 mu s
[OGL LOG][Proc: 0]generate_solver : 0 mu s
[OGL LOG][Proc: 0]solve : 4479735 mu s
nonecudaGKOCG:  Solving for p, Initial residual = 1, Final residual = 7.05452e-05, No Iterations 3726
linear solve p 6717808
time step continuity errors : sum local = 5.71586e-11, global = -1.16649e-22, cumulative = -2.98765e-22
[OGL LOG][Proc: 0]global_index_init : 148 mu s
[OGL LOG][Proc: 0]global_index_init : 18 mu s
[OGL LOG][Proc: 0]update_host_matrix_data : 46866 mu s
[OGL LOG][Proc: 0]gather_initGuess : 1 mu s
[OGL LOG][Proc: 0]gather_RHS : 0 mu s
[OGL LOG][Proc: 0]gather_global_matrix : 0 mu s
[OGL LOG][Proc: 0]init_precond : 35 mu s
[OGL LOG][Proc: 0]generate_solver : 1 mu s
[OGL LOG][Proc: 0]solve : 4466063 mu s
nonecudaGKOCG:  Solving for p, Initial residual = 1, Final residual = 2.20262e-05, No Iterations 3726
linear solve p 6689075
time step continuity errors : sum local = 1.23584e-11, global = -4.32084e-23, cumulative = -3.41973e-22
ExecutionTime = 271.02 s  ClockTime = 278 s

Time = 0.00012

Courant Number mean: 0.00257238 max: 0.0936641
DILUPBiCGStab:  Solving for Ux, Initial residual = 0.0259749, Final residual = 0.000108033, No Iterations 5
DILUPBiCGStab:  Solving for Uy, Initial residual = 0.0501321, Final residual = 0.000145468, No Iterations 5
DILUPBiCGStab:  Solving for Uz, Initial residual = 0.0822389, Final residual = 0.000701045, No Iterations 5
linear solve U 2677542
[OGL LOG][Proc: 0]global_index_init : 34 mu s
[OGL LOG][Proc: 0]global_index_init : 18 mu s
[OGL LOG][Proc: 0]update_host_matrix_data : 53549 mu s
[OGL LOG][Proc: 0]gather_initGuess : 1 mu s
[OGL LOG][Proc: 0]gather_RHS : 0 mu s
[OGL LOG][Proc: 0]gather_global_matrix : 0 mu s
[OGL LOG][Proc: 0]init_precond : 36 mu s
[OGL LOG][Proc: 0]generate_solver : 1 mu s
[OGL LOG][Proc: 0]solve : 4508321 mu s
nonecudaGKOCG:  Solving for p, Initial residual = 1, Final residual = 4.39783e-05, No Iterations 3726
linear solve p 6737739
time step continuity errors : sum local = 3.28118e-11, global = -5.56365e-23, cumulative = -3.9761e-22
[OGL LOG][Proc: 0]global_index_init : 33 mu s
[OGL LOG][Proc: 0]global_index_init : 16 mu s
[OGL LOG][Proc: 0]update_host_matrix_data : 47172 mu s
[OGL LOG][Proc: 0]gather_initGuess : 1 mu s
[OGL LOG][Proc: 0]gather_RHS : 0 mu s
[OGL LOG][Proc: 0]gather_global_matrix : 0 mu s
[OGL LOG][Proc: 0]init_precond : 38 mu s
[OGL LOG][Proc: 0]generate_solver : 0 mu s
[OGL LOG][Proc: 0]solve : 4542963 mu s
nonecudaGKOCG:  Solving for p, Initial residual = 1, Final residual = 2.07207e-05, No Iterations 3726
linear solve p 6768018
time step continuity errors : sum local = 1.16096e-11, global = -7.31308e-23, cumulative = -4.70741e-22
ExecutionTime = 287.95 s  ClockTime = 296 s

Time = 0.00014

Courant Number mean: 0.00280992 max: 0.0942751
DILUPBiCGStab:  Solving for Ux, Initial residual = 0.0220496, Final residual = 7.39722e-05, No Iterations 5
DILUPBiCGStab:  Solving for Uy, Initial residual = 0.0411718, Final residual = 0.00012134, No Iterations 5
DILUPBiCGStab:  Solving for Uz, Initial residual = 0.0683576, Final residual = 0.000481982, No Iterations 5
linear solve U 2682337
[OGL LOG][Proc: 0]global_index_init : 37 mu s
[OGL LOG][Proc: 0]global_index_init : 16 mu s
[OGL LOG][Proc: 0]update_host_matrix_data : 53529 mu s
[OGL LOG][Proc: 0]gather_initGuess : 1 mu s
[OGL LOG][Proc: 0]gather_RHS : 0 mu s
[OGL LOG][Proc: 0]gather_global_matrix : 0 mu s
[OGL LOG][Proc: 0]init_precond : 29 mu s
[OGL LOG][Proc: 0]generate_solver : 0 mu s
[OGL LOG][Proc: 0]solve : 4476771 mu s
nonecudaGKOCG:  Solving for p, Initial residual = 1, Final residual = 4.98881e-05, No Iterations 3726
linear solve p 6702710
time step continuity errors : sum local = 3.3707e-11, global = -3.15149e-23, cumulative = -5.02256e-22
[OGL LOG][Proc: 0]global_index_init : 32 mu s
[OGL LOG][Proc: 0]global_index_init : 19 mu s
[OGL LOG][Proc: 0]update_host_matrix_data : 47094 mu s
[OGL LOG][Proc: 0]gather_initGuess : 1 mu s
[OGL LOG][Proc: 0]gather_RHS : 0 mu s
[OGL LOG][Proc: 0]gather_global_matrix : 0 mu s
[OGL LOG][Proc: 0]init_precond : 30 mu s
[OGL LOG][Proc: 0]generate_solver : 0 mu s
[OGL LOG][Proc: 0]solve : 4735546 mu s
nonecudaGKOCG:  Solving for p, Initial residual = 1, Final residual = 2.04474e-05, No Iterations 3726
linear solve p 6961606
time step continuity errors : sum local = 1.14471e-11, global = -4.09028e-23, cumulative = -5.43158e-22
ExecutionTime = 304.9 s  ClockTime = 314 s

Time = 0.00016

Courant Number mean: 0.00302417 max: 0.0947348
DILUPBiCGStab:  Solving for Ux, Initial residual = 0.0192083, Final residual = 5.54524e-05, No Iterations 5
DILUPBiCGStab:  Solving for Uy, Initial residual = 0.0349677, Final residual = 8.01922e-05, No Iterations 5
DILUPBiCGStab:  Solving for Uz, Initial residual = 0.0605996, Final residual = 0.000358016, No Iterations 5
linear solve U 2677074
[OGL LOG][Proc: 0]global_index_init : 34 mu s
[OGL LOG][Proc: 0]global_index_init : 22 mu s
[OGL LOG][Proc: 0]update_host_matrix_data : 53626 mu s
[OGL LOG][Proc: 0]gather_initGuess : 1 mu s
[OGL LOG][Proc: 0]gather_RHS : 0 mu s
[OGL LOG][Proc: 0]gather_global_matrix : 0 mu s
[OGL LOG][Proc: 0]init_precond : 34 mu s
[OGL LOG][Proc: 0]generate_solver : 0 mu s
[OGL LOG][Proc: 0]solve : 4465844 mu s
nonecudaGKOCG:  Solving for p, Initial residual = 1, Final residual = 3.33751e-05, No Iterations 3726
linear solve p 6704063
time step continuity errors : sum local = 2.13965e-11, global = -1.67952e-25, cumulative = -5.43326e-22
[...]
linear solve p 139852
time step continuity errors : sum local = 2.66057e-09, global = -8.2784e-22, cumulative = -2.44231e-21
ExecutionTime = 0.54 s  ClockTime = 0 s

Time = 0.0002

Courant Number mean: 0.00201331 max: 0.0540371
DILUPBiCGStab:  Solving for Ux, Initial residual = 0.216464, Final residual = 1.09012e-05, No Iterations 5
DILUPBiCGStab:  Solving for Uy, Initial residual = 0.30994, Final residual = 1.07808e-05, No Iterations 5
DILUPBiCGStab:  Solving for Uz, Initial residual = 0.98129, Final residual = 3.21949e-05, No Iterations 5
linear solve U 20682
nonePCG:  Solving for p, Initial residual = 0.381572, Final residual = 9.45721e-05, No Iterations 729
linear solve p 143764
time step continuity errors : sum local = 2.47486e-09, global = -4.46093e-22, cumulative = -2.8884e-21
nonePCG:  Solving for p, Initial residual = 0.284667, Final residual = 9.90004e-05, No Iterations 703
linear solve p 134371
time step continuity errors : sum local = 2.71511e-09, global = -9.31933e-22, cumulative = -3.82033e-21
ExecutionTime = 0.86 s  ClockTime = 1 s

Time = 0.0003

Courant Number mean: 0.00317978 max: 0.0721774
DILUPBiCGStab:  Solving for Ux, Initial residual = 0.0963259, Final residual = 4.20811e-06, No Iterations 5
DILUPBiCGStab:  Solving for Uy, Initial residual = 0.140691, Final residual = 3.582e-06, No Iterations 5
DILUPBiCGStab:  Solving for Uz, Initial residual = 0.205632, Final residual = 8.0416e-06, No Iterations 5
linear solve U 15753
nonePCG:  Solving for p, Initial residual = 0.128522, Final residual = 9.83065e-05, No Iterations 697
linear solve p 129252
time step continuity errors : sum local = 2.317e-09, global = -1.0962e-21, cumulative = -4.91653e-21
nonePCG:  Solving for p, Initial residual = 0.0995971, Final residual = 9.53216e-05, No Iterations 693
linear solve p 131191
time step continuity errors : sum local = 2.27557e-09, global = -1.04813e-21, cumulative = -5.96466e-21
ExecutionTime = 1.16 s  ClockTime = 1 s

Time = 0.0004

Courant Number mean: 0.00397984 max: 0.0793325
DILUPBiCGStab:  Solving for Ux, Initial residual = 0.0593654, Final residual = 1.89773e-06, No Iterations 5
DILUPBiCGStab:  Solving for Uy, Initial residual = 0.0868084, Final residual = 1.9517e-06, No Iterations 5
DILUPBiCGStab:  Solving for Uz, Initial residual = 0.126687, Final residual = 3.93747e-06, No Iterations 5
linear solve U 16185
nonePCG:  Solving for p, Initial residual = 0.0642975, Final residual = 9.89832e-05, No Iterations 681
linear solve p 124780
time step continuity errors : sum local = 2.29535e-09, global = -1.17115e-21, cumulative = -7.13581e-21
nonePCG:  Solving for p, Initial residual = 0.0497415, Final residual = 9.88352e-05, No Iterations 672
linear solve p 125051
time step continuity errors : sum local = 2.32696e-09, global = -1.54274e-21, cumulative = -8.67855e-21
ExecutionTime = 1.44 s  ClockTime = 1 s

Time = 0.0005

Courant Number mean: 0.00460128 max: 0.0828851
DILUPBiCGStab:  Solving for Ux, Initial residual = 0.0428599, Final residual = 1.42116e-06, No Iterations 5
DILUPBiCGStab:  Solving for Uy, Initial residual = 0.0618653, Final residual = 1.32895e-06, No Iterations 5
DILUPBiCGStab:  Solving for Uz, Initial residual = 0.0973511, Final residual = 2.7431e-06, No Iterations 5
linear solve U 15512
nonePCG:  Solving for p, Initial residual = 0.0389641, Final residual = 9.74903e-05, No Iterations 670
linear solve p 123042
time step continuity errors : sum local = 2.29336e-09, global = -4.84204e-22, cumulative = -9.16275e-21
nonePCG:  Solving for p, Initial residual = 0.0306017, Final residual = 9.71421e-05, No Iterations 637
linear solve p 131443
time step continuity errors : sum local = 2.30142e-09, global = -1.43838e-21, cumulative = -1.06011e-20
ExecutionTime = 1.73 s  ClockTime = 2 s

Time = 0.0006

Courant Number mean: 0.00511863 max: 0.0850108
DILUPBiCGStab:  Solving for Ux, Initial residual = 0.0336739, Final residual = 1.05844e-06, No Iterations 5
DILUPBiCGStab:  Solving for Uy, Initial residual = 0.0480392, Final residual = 1.02235e-06, No Iterations 5
DILUPBiCGStab:  Solving for Uz, Initial residual = 0.0800783, Final residual = 1.99798e-06, No Iterations 5
linear solve U 15749
nonePCG:  Solving for p, Initial residual = 0.0268904, Final residual = 9.76965e-05, No Iterations 632
linear solve p 120760
time step continuity errors : sum local = 2.31793e-09, global = -1.47679e-21, cumulative = -1.20779e-20
nonePCG:  Solving for p, Initial residual = 0.0213066, Final residual = 9.28588e-05, No Iterations 627
linear solve p 128985
time step continuity errors : sum local = 2.21507e-09, global = -1.05374e-21, cumulative = -1.31317e-20
ExecutionTime = 2.03 s  ClockTime = 2 s

Time = 0.0007

Courant Number mean: 0.00556496 max: 0.0864549
DILUPBiCGStab:  Solving for Ux, Initial residual = 0.0277685, Final residual = 8.28733e-07, No Iterations 5
DILUPBiCGStab:  Solving for Uy, Initial residual = 0.0392333, Final residual = 8.35441e-07, No Iterations 5
DILUPBiCGStab:  Solving for Uz, Initial residual = 0.0681326, Final residual = 1.54152e-06, No Iterations 5
linear solve U 17556
nonePCG:  Solving for p, Initial residual = 0.0208428, Final residual = 9.6901e-05, No Iterations 627
linear solve p 118862
time step continuity errors : sum local = 2.31659e-09, global = -1.96199e-21, cumulative = -1.50937e-20
nonePCG:  Solving for p, Initial residual = 0.0165938, Final residual = 9.56681e-05, No Iterations 623
linear solve p 120884
time step continuity errors : sum local = 2.29579e-09, global = -1.18162e-21, cumulative = -1.62753e-20
ExecutionTime = 2.3 s  ClockTime = 2 s

Time = 0.0008

Courant Number mean: 0.00596229 max: 0.0875193
DILUPBiCGStab:  Solving for Ux, Initial residual = 0.0236261, Final residual = 6.79512e-07, No Iterations 5
DILUPBiCGStab:  Solving for Uy, Initial residual = 0.0331324, Final residual = 7.0746e-07, No Iterations 5
DILUPBiCGStab:  Solving for Uz, Initial residual = 0.0591217, Final residual = 1.24755e-06, No Iterations 5
linear solve U 16160
nonePCG:  Solving for p, Initial residual = 0.016728, Final residual = 9.08223e-05, No Iterations 625
linear solve p 116710
time step continuity errors : sum local = 2.18438e-09, global = -1.82986e-21, cumulative = -1.81051e-20
nonePCG:  Solving for p, Initial residual = 0.0134205, Final residual = 9.43859e-05, No Iterations 621
linear solve p 119298
time step continuity errors : sum local = 2.27687e-09, global = -1.08525e-21, cumulative = -1.91904e-20
ExecutionTime = 2.58 s  ClockTime = 2 s

Time = 0.0009

Courant Number mean: 0.00631846 max: 0.0883466
DILUPBiCGStab:  Solving for Ux, Initial residual = 0.0205618, Final residual = 5.73044e-07, No Iterations 5
DILUPBiCGStab:  Solving for Uy, Initial residual = 0.0286479, Final residual = 6.13313e-07, No Iterations 5
DILUPBiCGStab:  Solving for Uz, Initial residual = 0.0521853, Final residual = 1.053e-06, No Iterations 5
linear solve U 18339
nonePCG:  Solving for p, Initial residual = 0.0138839, Final residual = 9.99665e-05, No Iterations 622
linear solve p 115262
time step continuity errors : sum local = 2.41608e-09, global = -1.73255e-21, cumulative = -2.09229e-20
nonePCG:  Solving for p, Initial residual = 0.0111946, Final residual = 9.74776e-05, No Iterations 287
linear solve p 53901
time step continuity errors : sum local = 2.77594e-09, global = -2.48921e-21, cumulative = -2.34121e-20
ExecutionTime = 2.78 s  ClockTime = 3 s

Time = 0.001

Courant Number mean: 0.00664436 max: 0.0890141
DILUPBiCGStab:  Solving for Ux, Initial residual = 0.0181805, Final residual = 4.93404e-07, No Iterations 5
DILUPBiCGStab:  Solving for Uy, Initial residual = 0.0252098, Final residual = 5.4123e-07, No Iterations 5
DILUPBiCGStab:  Solving for Uz, Initial residual = 0.0472089, Final residual = 1.04036e-06, No Iterations 5
linear solve U 15979
nonePCG:  Solving for p, Initial residual = 0.0119386, Final residual = 9.60701e-05, No Iterations 286
linear solve p 53257
time step continuity errors : sum local = 2.58731e-09, global = -1.78452e-21, cumulative = -2.51967e-20
nonePCG:  Solving for p, Initial residual = 0.00965421, Final residual = 9.66273e-05, No Iterations 285
linear solve p 54394
time step continuity errors : sum local = 2.76463e-09, global = -1.13741e-21, cumulative = -2.63341e-20
ExecutionTime = 2.93 s  ClockTime = 3 s

End

Finalising parallel run
================================================================================

============================= JOB FEEDBACK =============================

Job ID: 1742976
Cluster: hk
User/Group: eq4036/hk-project-test-fine
State: COMPLETED (exit code 0)
Partition: cpuonly
Nodes: 8
Cores per node: 152
Nodelist: hkn[1213-1220]
CPU Utilized: 00:06:02
CPU Efficiency: 0.20% of 2-01:59:28 core-walltime
Job Wall-clock time: 00:02:28
Starttime: Mon May 16 21:00:38 2022
Endtime: Mon May 16 21:03:06 2022
Memory Utilized: 10.31 GB
Memory Efficiency: 0.54% of 1.86 TB
Energy Consumed: 394223 Joule / 109.506388888889 Watthours
Average node power draw: 2663.66891891892 Watt
hash: acfc07592b55be7605cb1302e882b948
/*---------------------------------------------------------------------------*\
| =========                 |                                                 |
| \\      /  F ield         | OpenFOAM: The Open Source CFD Toolbox           |
|  \\    /   O peration     | Version:  2112                                  |
|   \\  /    A nd           | Website:  www.openfoam.com                      |
|    \\/     M anipulation  |                                                 |
\*---------------------------------------------------------------------------*/
Build  : d44c8318f0-20220111 OPENFOAM=2112 version=v2112
Arch   : "LSB;label=32;scalar=64"
Exec   : icoFoam -parallel
Date   : May 16 2022
Time   : 21:01:03
Host   : hkn1213.localdomain
PID    : 2635092
I/O    : uncollated
Case   : /hkfs/home/project/hk-project-test-fine/eq4036/data/code/ogl_labbook/lidDrivenCavity/scaling/Variation_mesh/100/Variation_matrix_solver/CG_NoPrecond_DefaultOF/Variation_mpiRank_of/608/base
nProcs : 608
Hosts  :
(
    (hkn1213.localdomain 76)
    (hkn1214.localdomain 76)
    (hkn1215.localdomain 76)
    (hkn1216.localdomain 76)
    (hkn1217.localdomain 76)
    (hkn1218.localdomain 76)
    (hkn1219.localdomain 76)
    (hkn1220.localdomain 76)
)
Pstream initialized with:
    floatTransfer      : 0
    nProcsSimpleSum    : 0
    commsType          : nonBlocking
    polling iterations : 0
trapFpe: Floating point exception trapping enabled (FOAM_SIGFPE).
fileModificationChecking : Monitoring run-time modified files using timeStampMaster (fileModificationSkew 5, maxFileModificationPolls 20)
allowSystemOperations : Allowing user-supplied system call operations

// * * * * * * * * * * * * * * * * * * * * * * * * * * * * * * * * * * * * * //
Create time

Create mesh for time = 0


PISO: Operating solver in PISO mode

Reading transportProperties

Reading field p

Reading field U

Reading/calculating face flux field phi


Starting time loop

Time = 0.0001

Courant Number mean: 0 max: 0
DILUPBiCGStab:  Solving for Ux, Initial residual = 1, Final residual = 3.11668e-05, No Iterations 5
DILUPBiCGStab:  Solving for Uy:  solution singularity
DILUPBiCGStab:  Solving for Uz:  solution singularity
linear solve U 4853
nonePCG:  Solving for p, Initial residual = 1, Final residual = 9.83568e-05, No Iterations 758
linear solve p 69988
time step continuity errors : sum local = 1.73828e-09, global = -2.07581e-22, cumulative = -2.07581e-22
nonePCG:  Solving for p, Initial residual = 0.554991, Final residual = 9.16098e-05, No Iterations 749
linear solve p 65372
time step continuity errors : sum local = 2.52878e-09, global = -1.50788e-21, cumulative = -1.71546e-21
ExecutionTime = 1.57 s  ClockTime = 118 s

Time = 0.0002

Courant Number mean: 0.0020133 max: 0.0540371
DILUPBiCGStab:  Solving for Ux, Initial residual = 0.216464, Final residual = 2.16275e-05, No Iterations 5
DILUPBiCGStab:  Solving for Uy, Initial residual = 0.309945, Final residual = 1.84798e-05, No Iterations 5
DILUPBiCGStab:  Solving for Uz, Initial residual = 0.981234, Final residual = 7.93976e-05, No Iterations 5
linear solve U 4302
nonePCG:  Solving for p, Initial residual = 0.381191, Final residual = 9.65157e-05, No Iterations 736
linear solve p 64673
time step continuity errors : sum local = 2.52842e-09, global = -1.97486e-21, cumulative = -3.69032e-21
nonePCG:  Solving for p, Initial residual = 0.284253, Final residual = 9.53305e-05, No Iterations 730
linear solve p 64965
time step continuity errors : sum local = 2.61845e-09, global = -1.30793e-21, cumulative = -4.99825e-21
ExecutionTime = 1.7 s  ClockTime = 118 s

Time = 0.0003

Courant Number mean: 0.00317977 max: 0.0721774
DILUPBiCGStab:  Solving for Ux, Initial residual = 0.0963257, Final residual = 9.4789e-06, No Iterations 5
DILUPBiCGStab:  Solving for Uy, Initial residual = 0.140691, Final residual = 6.48449e-06, No Iterations 5
DILUPBiCGStab:  Solving for Uz, Initial residual = 0.205473, Final residual = 1.83944e-05, No Iterations 5
linear solve U 5339
nonePCG:  Solving for p, Initial residual = 0.128453, Final residual = 9.77401e-05, No Iterations 698
linear solve p 59033
time step continuity errors : sum local = 2.30559e-09, global = -2.0419e-21, cumulative = -7.04015e-21
nonePCG:  Solving for p, Initial residual = 0.0995683, Final residual = 9.69201e-05, No Iterations 693
linear solve p 55105
time step continuity errors : sum local = 2.31475e-09, global = -1.77144e-21, cumulative = -8.8116e-21
ExecutionTime = 1.84 s  ClockTime = 118 s

Time = 0.0004

Courant Number mean: 0.00397983 max: 0.0793326
DILUPBiCGStab:  Solving for Ux, Initial residual = 0.0593655, Final residual = 4.81771e-06, No Iterations 5
DILUPBiCGStab:  Solving for Uy, Initial residual = 0.0868088, Final residual = 3.57182e-06, No Iterations 5
DILUPBiCGStab:  Solving for Uz, Initial residual = 0.126418, Final residual = 8.69972e-06, No Iterations 5
linear solve U 4064
nonePCG:  Solving for p, Initial residual = 0.0642633, Final residual = 9.62456e-05, No Iterations 690
linear solve p 52435
time step continuity errors : sum local = 2.23314e-09, global = -2.1136e-21, cumulative = -1.09252e-20
nonePCG:  Solving for p, Initial residual = 0.0497523, Final residual = 9.80057e-05, No Iterations 684
linear solve p 52384
time step continuity errors : sum local = 2.30743e-09, global = -2.50682e-21, cumulative = -1.3432e-20
ExecutionTime = 1.95 s  ClockTime = 118 s

Time = 0.0005

Courant Number mean: 0.00460128 max: 0.0828851
DILUPBiCGStab:  Solving for Ux, Initial residual = 0.0428602, Final residual = 2.95797e-06, No Iterations 5
DILUPBiCGStab:  Solving for Uy, Initial residual = 0.0618651, Final residual = 2.35373e-06, No Iterations 5
DILUPBiCGStab:  Solving for Uz, Initial residual = 0.0970116, Final residual = 5.7709e-06, No Iterations 5
linear solve U 4329
nonePCG:  Solving for p, Initial residual = 0.0389312, Final residual = 9.46315e-05, No Iterations 682
linear solve p 52326
time step continuity errors : sum local = 2.22712e-09, global = -2.19287e-21, cumulative = -1.56249e-20
nonePCG:  Solving for p, Initial residual = 0.0305745, Final residual = 9.67035e-05, No Iterations 676
linear solve p 54517
time step continuity errors : sum local = 2.29112e-09, global = -2.41331e-21, cumulative = -1.80382e-20
ExecutionTime = 2.06 s  ClockTime = 118 s

Time = 0.0006

Courant Number mean: 0.00511862 max: 0.0850108
DILUPBiCGStab:  Solving for Ux, Initial residual = 0.033674, Final residual = 1.99964e-06, No Iterations 5
DILUPBiCGStab:  Solving for Uy, Initial residual = 0.0480393, Final residual = 1.74293e-06, No Iterations 5
DILUPBiCGStab:  Solving for Uz, Initial residual = 0.0794123, Final residual = 4.07748e-06, No Iterations 5
linear solve U 4159
nonePCG:  Solving for p, Initial residual = 0.0268745, Final residual = 9.96502e-05, No Iterations 675
linear solve p 56437
time step continuity errors : sum local = 2.36505e-09, global = -3.02213e-21, cumulative = -2.10603e-20
nonePCG:  Solving for p, Initial residual = 0.0213167, Final residual = 9.80433e-05, No Iterations 670
linear solve p 51868
time step continuity errors : sum local = 2.33905e-09, global = -1.58801e-21, cumulative = -2.26483e-20
ExecutionTime = 2.18 s  ClockTime = 118 s

Time = 0.0007

Courant Number mean: 0.00556495 max: 0.086455
DILUPBiCGStab:  Solving for Ux, Initial residual = 0.0277686, Final residual = 1.50798e-06, No Iterations 5
DILUPBiCGStab:  Solving for Uy, Initial residual = 0.0392332, Final residual = 1.38568e-06, No Iterations 5
DILUPBiCGStab:  Solving for Uz, Initial residual = 0.067452, Final residual = 3.07975e-06, No Iterations 5
linear solve U 4464
nonePCG:  Solving for p, Initial residual = 0.0208168, Final residual = 9.3133e-05, No Iterations 672
linear solve p 58928
time step continuity errors : sum local = 2.22717e-09, global = -3.57914e-21, cumulative = -2.62275e-20
nonePCG:  Solving for p, Initial residual = 0.0165785, Final residual = 9.89147e-05, No Iterations 666
linear solve p 50623
time step continuity errors : sum local = 2.37413e-09, global = -3.02036e-21, cumulative = -2.92478e-20
ExecutionTime = 2.3 s  ClockTime = 118 s

Time = 0.0008

Courant Number mean: 0.00596227 max: 0.0875193
DILUPBiCGStab:  Solving for Ux, Initial residual = 0.0236263, Final residual = 1.20772e-06, No Iterations 5
DILUPBiCGStab:  Solving for Uy, Initial residual = 0.0331323, Final residual = 1.14878e-06, No Iterations 5
DILUPBiCGStab:  Solving for Uz, Initial residual = 0.058687, Final residual = 2.46509e-06, No Iterations 5
linear solve U 3980
nonePCG:  Solving for p, Initial residual = 0.0166852, Final residual = 9.66095e-05, No Iterations 669
linear solve p 49454
time step continuity errors : sum local = 2.32422e-09, global = -4.09107e-21, cumulative = -3.33389e-20
nonePCG:  Solving for p, Initial residual = 0.0133864, Final residual = 9.79394e-05, No Iterations 663
linear solve p 48899
time step continuity errors : sum local = 2.36306e-09, global = -2.42434e-21, cumulative = -3.57632e-20
ExecutionTime = 2.4 s  ClockTime = 119 s

Time = 0.0009

Courant Number mean: 0.00631845 max: 0.0883466
DILUPBiCGStab:  Solving for Ux, Initial residual = 0.0205619, Final residual = 1.00413e-06, No Iterations 5
DILUPBiCGStab:  Solving for Uy, Initial residual = 0.0286478, Final residual = 9.8069e-07, No Iterations 5
DILUPBiCGStab:  Solving for Uz, Initial residual = 0.0518952, Final residual = 2.05782e-06, No Iterations 5
linear solve U 3744
nonePCG:  Solving for p, Initial residual = 0.0138783, Final residual = 9.99435e-05, No Iterations 665
linear solve p 54853
time step continuity errors : sum local = 2.41631e-09, global = -2.60552e-21, cumulative = -3.83688e-20
nonePCG:  Solving for p, Initial residual = 0.0111908, Final residual = 9.91832e-05, No Iterations 660
linear solve p 48402
time step continuity errors : sum local = 2.40347e-09, global = -3.54072e-21, cumulative = -4.19095e-20
ExecutionTime = 2.51 s  ClockTime = 119 s

Time = 0.001

Courant Number mean: 0.00664435 max: 0.089014
DILUPBiCGStab:  Solving for Ux, Initial residual = 0.0181856, Final residual = 8.57784e-07, No Iterations 5
DILUPBiCGStab:  Solving for Uy, Initial residual = 0.0252109, Final residual = 8.54879e-07, No Iterations 5
DILUPBiCGStab:  Solving for Uz, Initial residual = 0.0464531, Final residual = 1.76939e-06, No Iterations 5
linear solve U 3743
nonePCG:  Solving for p, Initial residual = 0.011868, Final residual = 9.4953e-05, No Iterations 664
linear solve p 49227
time step continuity errors : sum local = 2.30517e-09, global = -3.1664e-21, cumulative = -4.50759e-20
nonePCG:  Solving for p, Initial residual = 0.00959819, Final residual = 9.946e-05, No Iterations 658
linear solve p 48484
time step continuity errors : sum local = 2.41918e-09, global = -4.46755e-21, cumulative = -4.95434e-20
ExecutionTime = 2.61 s  ClockTime = 119 s

End

Finalising parallel run
================================================================================
