hash: 1f4dc368e4210d28a5d5882e457e8cc5
/*---------------------------------------------------------------------------*\
| =========                 |                                                 |
| \\      /  F ield         | OpenFOAM: The Open Source CFD Toolbox           |
|  \\    /   O peration     | Version:  v2106                                 |
|   \\  /    A nd           | Website:  www.openfoam.com                      |
|    \\/     M anipulation  |                                                 |
\*---------------------------------------------------------------------------*/
Build  : f815a12bba-20210902 OPENFOAM=2106
Arch   : "LSB;label=32;scalar=64"
Exec   : icoFoam -parallel
Date   : Oct 06 2022
Time   : 10:15:39
Host   : nla-gpu2.ianm.kit.edu
PID    : 1639081
I/O    : uncollated
Case   : /home/greole/data/code/ogl_labbook/lidDrivenCavity/single_node/mesh/400/matrix_solver/CG_NoPrecond_PETSC_HIP/mpiRank_of/32/base
nProcs : 32
Hosts  :
(
    (nla-gpu2.ianm.kit.edu 32)
)
Pstream initialized with:
    floatTransfer      : 0
    nProcsSimpleSum    : 0
    commsType          : nonBlocking
    polling iterations : 0
trapFpe: Floating point exception trapping enabled (FOAM_SIGFPE).
fileModificationChecking : Monitoring run-time modified files using timeStampMaster (fileModificationSkew 5, maxFileModificationPolls 20)
allowSystemOperations : Allowing user-supplied system call operations

// * * * * * * * * * * * * * * * * * * * * * * * * * * * * * * * * * * * * * //
Create time

Create mesh for time = 0


PISO: Operating solver in PISO mode

Reading transportProperties

Reading field p

Reading field U

Reading/calculating face flux field phi


Starting time loop

Time = 2.5e-05

Courant Number mean: 0 max: 0
DILUPBiCGStab:  Solving for Ux, Initial residual = 1, Final residual = 0.00138472, No Iterations 5
DILUPBiCGStab:  Solving for Uy:  solution singularity
DILUPBiCGStab:  Solving for Uz:  solution singularity
linear solve U 4657.69 [ms]
piso setup 1501.35 [ms]
 correctNonOrthogonal 
 setRef 
 startSolve 
Initializing PETSc
PETSc-cg:  Solving for p, Initial residual = 1, Final residual = 9.92545e-05, No Iterations 3256
linear solve p 1.34463e+06 [ms]
piso step 1.3452e+06 [ms]
 contErrors 
time step continuity errors : sum local = 2.41817e-10, global = 1.86286e-22, cumulative = 1.86286e-22
piso setup 1224.45 [ms]
 correctNonOrthogonal 
 setRef 
 startSolve 
PETSc-cg:  Solving for p, Initial residual = 0.71766, Final residual = 9.98313e-05, No Iterations 3237
linear solve p 1.34149e+06 [ms]
piso step 1.34206e+06 [ms]
 contErrors 
time step continuity errors : sum local = 3.27457e-10, global = -3.33134e-23, cumulative = 1.52972e-22
ExecutionTime = 2695.26 s  ClockTime = 2710 s

Time = 5e-05

Courant Number mean: 0.00116724 max: 0.075131
DILUPBiCGStab:  Solving for Ux, Initial residual = 0.159863, Final residual = 0.000886592, No Iterations 5
DILUPBiCGStab:  Solving for Uy, Initial residual = 0.348724, Final residual = 0.000948013, No Iterations 5
DILUPBiCGStab:  Solving for Uz, Initial residual = 0.994661, Final residual = 0.00355307, No Iterations 5
linear solve U 8610.54 [ms]
piso setup 1407.81 [ms]
 correctNonOrthogonal 
 setRef 
 startSolve 
PETSc-cg:  Solving for p, Initial residual = 0.662877, Final residual = 9.88237e-05, No Iterations 3180
linear solve p 1.2898e+06 [ms]
piso step 1.29041e+06 [ms]
 contErrors 
time step continuity errors : sum local = 3.55275e-10, global = -4.66079e-23, cumulative = 1.06364e-22
piso setup 1247.92 [ms]
 correctNonOrthogonal 
 setRef 
 startSolve 
PETSc-cg:  Solving for p, Initial residual = 0.588461, Final residual = 9.89098e-05, No Iterations 3174
linear solve p 1.32527e+06 [ms]
piso step 1.32599e+06 [ms]
 contErrors 
time step continuity errors : sum local = 3.61809e-10, global = 1.47363e-23, cumulative = 1.21101e-22
ExecutionTime = 5310.02 s  ClockTime = 5340 s

Time = 7.5e-05

Courant Number mean: 0.0017804 max: 0.0870161
DILUPBiCGStab:  Solving for Ux, Initial residual = 0.0661614, Final residual = 0.000264838, No Iterations 5
DILUPBiCGStab:  Solving for Uy, Initial residual = 0.138226, Final residual = 0.000268004, No Iterations 5
DILUPBiCGStab:  Solving for Uz, Initial residual = 0.438205, Final residual = 0.00189002, No Iterations 5
linear solve U 11059.8 [ms]
piso setup 1242.75 [ms]
 correctNonOrthogonal 
 setRef 
 startSolve 
PETSc-cg:  Solving for p, Initial residual = 0.561916, Final residual = 9.93098e-05, No Iterations 3133
linear solve p 1.29085e+06 [ms]
piso step 1.29165e+06 [ms]
 contErrors 
time step continuity errors : sum local = 2.5426e-10, global = 3.43587e-23, cumulative = 1.55459e-22
piso setup 1308.89 [ms]
 correctNonOrthogonal 
 setRef 
 startSolve 
PETSc-cg:  Solving for p, Initial residual = 0.504392, Final residual = 9.92464e-05, No Iterations 3126
linear solve p 1.05965e+06 [ms]
piso step 1.06054e+06 [ms]
 contErrors 
time step continuity errors : sum local = 2.48678e-10, global = 7.00801e-24, cumulative = 1.62467e-22
ExecutionTime = 7665.34 s  ClockTime = 7709 s

Time = 0.0001

Courant Number mean: 0.00220759 max: 0.090316
DILUPBiCGStab:  Solving for Ux, Initial residual = 0.0437032, Final residual = 0.000117706, No Iterations 5
DILUPBiCGStab:  Solving for Uy, Initial residual = 0.0872305, Final residual = 0.000107908, No Iterations 5
DILUPBiCGStab:  Solving for Uz, Initial residual = 0.134067, Final residual = 0.000387159, No Iterations 5
linear solve U 10903 [ms]
piso setup 1258.7 [ms]
 correctNonOrthogonal 
 setRef 
 startSolve 
PETSc-cg:  Solving for p, Initial residual = 0.326172, Final residual = 9.98197e-05, No Iterations 1487
linear solve p 511293 [ms]
piso step 512083 [ms]
 contErrors 
time step continuity errors : sum local = 2.31752e-10, global = 2.51825e-23, cumulative = 1.8765e-22
piso setup 1241.99 [ms]
 correctNonOrthogonal 
 setRef 
 startSolve 
PETSc-cg:  Solving for p, Initial residual = 0.271546, Final residual = 9.85519e-05, No Iterations 1467
linear solve p 394318 [ms]
piso step 395152 [ms]
 contErrors 
time step continuity errors : sum local = 2.20233e-10, global = -5.4643e-23, cumulative = 1.33007e-22
ExecutionTime = 8583.52 s  ClockTime = 8632 s

Time = 0.000125

Courant Number mean: 0.00255333 max: 0.091904
DILUPBiCGStab:  Solving for Ux, Initial residual = 0.0332648, Final residual = 7.29166e-05, No Iterations 5
DILUPBiCGStab:  Solving for Uy, Initial residual = 0.0630336, Final residual = 6.55547e-05, No Iterations 5
DILUPBiCGStab:  Solving for Uz, Initial residual = 0.0922799, Final residual = 0.000256897, No Iterations 5
linear solve U 11883.4 [ms]
piso setup 1272.44 [ms]
 correctNonOrthogonal 
 setRef 
 startSolve 
PETSc-cg:  Solving for p, Initial residual = 0.218998, Final residual = 9.89975e-05, No Iterations 1437
linear solve p 406691 [ms]
piso step 407576 [ms]
 contErrors 
time step continuity errors : sum local = 1.92455e-10, global = -1.77185e-23, cumulative = 1.15288e-22
piso setup 1250.43 [ms]
 correctNonOrthogonal 
 setRef 
 startSolve 
PETSc-cg:  Solving for p, Initial residual = 0.184874, Final residual = 9.81591e-05, No Iterations 1434
linear solve p 354700 [ms]
piso step 355592 [ms]
 contErrors 
time step continuity errors : sum local = 1.87733e-10, global = -1.14875e-22, cumulative = 4.13146e-25
ExecutionTime = 9359.47 s  ClockTime = 9413 s

Time = 0.00015

Courant Number mean: 0.00284853 max: 0.0928884
DILUPBiCGStab:  Solving for Ux, Initial residual = 0.0270568, Final residual = 5.00341e-05, No Iterations 5
DILUPBiCGStab:  Solving for Uy, Initial residual = 0.0495079, Final residual = 3.20568e-05, No Iterations 5
DILUPBiCGStab:  Solving for Uz, Initial residual = 0.0804528, Final residual = 0.000162312, No Iterations 5
linear solve U 12133.6 [ms]
piso setup 1225.51 [ms]
 correctNonOrthogonal 
 setRef 
 startSolve 
PETSc-cg:  Solving for p, Initial residual = 0.131867, Final residual = 9.74272e-05, No Iterations 1451
linear solve p 387771 [ms]
piso step 388639 [ms]
 contErrors 
time step continuity errors : sum local = 1.95768e-10, global = 1.02105e-25, cumulative = 5.15251e-25
piso setup 1288.62 [ms]
 correctNonOrthogonal 
 setRef 
 startSolve 
PETSc-cg:  Solving for p, Initial residual = 0.109336, Final residual = 9.86732e-05, No Iterations 1375
linear solve p 301918 [ms]
piso step 302806 [ms]
 contErrors 
time step continuity errors : sum local = 1.89011e-10, global = -1.09666e-24, cumulative = -5.81409e-25
ExecutionTime = 10064.4 s  ClockTime = 10122 s

Time = 0.000175

Courant Number mean: 0.00310899 max: 0.0935743
DILUPBiCGStab:  Solving for Ux, Initial residual = 0.0228913, Final residual = 3.66687e-05, No Iterations 5
DILUPBiCGStab:  Solving for Uy, Initial residual = 0.0407774, Final residual = 2.86052e-05, No Iterations 5
DILUPBiCGStab:  Solving for Uz, Initial residual = 0.0683236, Final residual = 0.000108483, No Iterations 5
linear solve U 12856.6 [ms]
piso setup 1255.16 [ms]
 correctNonOrthogonal 
 setRef 
 startSolve 
PETSc-cg:  Solving for p, Initial residual = 0.0907172, Final residual = 9.88568e-05, No Iterations 1427
linear solve p 337404 [ms]
piso step 338321 [ms]
 contErrors 
time step continuity errors : sum local = 1.84453e-10, global = -1.76177e-23, cumulative = -1.81991e-23
piso setup 1307.12 [ms]
 correctNonOrthogonal 
 setRef 
 startSolve 
PETSc-cg:  Solving for p, Initial residual = 0.0760156, Final residual = 9.83393e-05, No Iterations 1380
linear solve p 238368 [ms]
piso step 239202 [ms]
 contErrors 
time step continuity errors : sum local = 1.77565e-10, global = 3.85778e-23, cumulative = 2.03787e-23
ExecutionTime = 10657.3 s  ClockTime = 10718 s

Time = 0.0002

Courant Number mean: 0.00334351 max: 0.0940885
DILUPBiCGStab:  Solving for Ux, Initial residual = 0.0199009, Final residual = 2.8084e-05, No Iterations 5
DILUPBiCGStab:  Solving for Uy, Initial residual = 0.0346169, Final residual = 2.08578e-05, No Iterations 5
DILUPBiCGStab:  Solving for Uz, Initial residual = 0.061087, Final residual = 8.09709e-05, No Iterations 5
linear solve U 11447.3 [ms]
piso setup 1228.38 [ms]
 correctNonOrthogonal 
 setRef 
 startSolve 
PETSc-cg:  Solving for p, Initial residual = 0.0587773, Final residual = 9.95455e-05, No Iterations 2976
linear solve p 558287 [ms]
piso step 559081 [ms]
 contErrors 
time step continuity errors : sum local = 1.76682e-10, global = 5.38523e-23, cumulative = 7.4231e-23
piso setup 1182.43 [ms]
 correctNonOrthogonal 
 setRef 
 startSolve 
PETSc-cg:  Solving for p, Initial residual = 0.0504994, Final residual = 9.87832e-05, No Iterations 1441
linear solve p 215519 [ms]
piso step 216272 [ms]
 contErrors 
time step continuity errors : sum local = 1.90693e-10, global = -7.54932e-23, cumulative = -1.26214e-24
ExecutionTime = 11444.9 s  ClockTime = 11509 s

Time = 0.000225

Courant Number mean: 0.00355785 max: 0.094492
DILUPBiCGStab:  Solving for Ux, Initial residual = 0.0176117, Final residual = 2.19627e-05, No Iterations 5
DILUPBiCGStab:  Solving for Uy, Initial residual = 0.0301157, Final residual = 1.90959e-05, No Iterations 5
DILUPBiCGStab:  Solving for Uz, Initial residual = 0.0557599, Final residual = 8.36269e-05, No Iterations 5
linear solve U 11273.8 [ms]
piso setup 1201.5 [ms]
 correctNonOrthogonal 
 setRef 
 startSolve 
PETSc-cg:  Solving for p, Initial residual = 0.0437157, Final residual = 9.93637e-05, No Iterations 2958
linear solve p 476648 [ms]
piso step 477438 [ms]
 contErrors 
time step continuity errors : sum local = 1.74901e-10, global = 1.62843e-24, cumulative = 3.66294e-25
piso setup 1188.11 [ms]
 correctNonOrthogonal 
 setRef 
 startSolve 
PETSc-cg:  Solving for p, Initial residual = 0.0379187, Final residual = 9.96112e-05, No Iterations 2943
linear solve p 420590 [ms]
piso step 421325 [ms]
 contErrors 
time step continuity errors : sum local = 1.75389e-10, global = -8.11632e-23, cumulative = -8.07969e-23
ExecutionTime = 12355.3 s  ClockTime = 12424 s

Time = 0.00025

Courant Number mean: 0.00375594 max: 0.0948197
DILUPBiCGStab:  Solving for Ux, Initial residual = 0.0158256, Final residual = 1.76788e-05, No Iterations 5
DILUPBiCGStab:  Solving for Uy, Initial residual = 0.0265961, Final residual = 1.60166e-05, No Iterations 5
DILUPBiCGStab:  Solving for Uz, Initial residual = 0.0473529, Final residual = 5.31135e-05, No Iterations 5
linear solve U 10675.7 [ms]
piso setup 1273.68 [ms]
 correctNonOrthogonal 
 setRef 
 startSolve 
PETSc-cg:  Solving for p, Initial residual = 0.0320096, Final residual = 9.96634e-05, No Iterations 1274
linear solve p 208877 [ms]
piso step 209655 [ms]
 contErrors 
time step continuity errors : sum local = 1.88657e-10, global = 9.99118e-23, cumulative = 1.91149e-23
piso setup 1132.19 [ms]
 correctNonOrthogonal 
 setRef 
 startSolve 
PETSc-cg:  Solving for p, Initial residual = 0.0285182, Final residual = 9.95667e-05, No Iterations 1241
linear solve p 203680 [ms]
piso step 204501 [ms]
 contErrors 
time step continuity errors : sum local = 1.80379e-10, global = -1.16122e-23, cumulative = 7.50267e-24
ExecutionTime = 12782.7 s  ClockTime = 12853 s

Time = 0.000275

Courant Number mean: 0.00394045 max: 0.0950927
DILUPBiCGStab:  Solving for Ux, Initial residual = 0.0143678, Final residual = 1.45315e-05, No Iterations 5
DILUPBiCGStab:  Solving for Uy, Initial residual = 0.0238367, Final residual = 1.44842e-05, No Iterations 5
DILUPBiCGStab:  Solving for Uz, Initial residual = 0.0438234, Final residual = 4.62139e-05, No Iterations 5
linear solve U 12003.2 [ms]
piso setup 1191.21 [ms]
 correctNonOrthogonal 
 setRef 
 startSolve 
PETSc-cg:  Solving for p, Initial residual = 0.0258155, Final residual = 9.99678e-05, No Iterations 1312
linear solve p 191685 [ms]
piso step 192438 [ms]
 contErrors 
time step continuity errors : sum local = 1.82485e-10, global = 8.27762e-23, cumulative = 9.02789e-23
piso setup 1155.33 [ms]
 correctNonOrthogonal 
 setRef 
 startSolve 
PETSc-cg:  Solving for p, Initial residual = 0.0233874, Final residual = 9.96759e-05, No Iterations 1254
linear solve p 193605 [ms]
piso step 194280 [ms]
 contErrors 
time step continuity errors : sum local = 1.74792e-10, global = 1.06797e-23, cumulative = 1.00959e-22
ExecutionTime = 13184 s  ClockTime = 13257 s

Time = 0.0003

Courant Number mean: 0.00411347 max: 0.0953247
DILUPBiCGStab:  Solving for Ux, Initial residual = 0.0131727, Final residual = 1.2215e-05, No Iterations 5
DILUPBiCGStab:  Solving for Uy, Initial residual = 0.0215646, Final residual = 1.27283e-05, No Iterations 5
DILUPBiCGStab:  Solving for Uz, Initial residual = 0.0410088, Final residual = 4.17652e-05, No Iterations 5
linear solve U 12051.4 [ms]
piso setup 1230.6 [ms]
 correctNonOrthogonal 
 setRef 
 startSolve 
PETSc-cg:  Solving for p, Initial residual = 0.0206832, Final residual = 9.89389e-05, No Iterations 1435
linear solve p 208859 [ms]
piso step 209498 [ms]
 contErrors 
time step continuity errors : sum local = 1.90215e-10, global = -4.46212e-23, cumulative = 5.63373e-23
piso setup 1093.15 [ms]
 correctNonOrthogonal 
 setRef 
 startSolve 
PETSc-cg:  Solving for p, Initial residual = 0.0191765, Final residual = 9.9163e-05, No Iterations 1347
linear solve p 199387 [ms]
piso step 199865 [ms]
 contErrors 
time step continuity errors : sum local = 1.80318e-10, global = -1.27593e-23, cumulative = 4.35781e-23
ExecutionTime = 13607.9 s  ClockTime = 13683 s

Time = 0.000325

Courant Number mean: 0.00427673 max: 0.0955249
DILUPBiCGStab:  Solving for Ux, Initial residual = 0.0121539, Final residual = 1.04581e-05, No Iterations 5
DILUPBiCGStab:  Solving for Uy, Initial residual = 0.0197134, Final residual = 1.15664e-05, No Iterations 5
DILUPBiCGStab:  Solving for Uz, Initial residual = 0.0380464, Final residual = 4.19431e-05, No Iterations 5
linear solve U 10665.5 [ms]
piso setup 1102.01 [ms]
 correctNonOrthogonal 
 setRef 
 startSolve 
PETSc-cg:  Solving for p, Initial residual = 0.0181298, Final residual = 9.85918e-05, No Iterations 1369
linear solve p 181877 [ms]
piso step 182522 [ms]
 contErrors 
time step continuity errors : sum local = 1.84068e-10, global = -4.7139e-23, cumulative = -3.56088e-24
piso setup 1067.81 [ms]
 correctNonOrthogonal 
 setRef 
 startSolve 
PETSc-cg:  Solving for p, Initial residual = 0.0169187, Final residual = 9.9869e-05, No Iterations 1277
linear solve p 184404 [ms]
piso step 185185 [ms]
 contErrors 
time step continuity errors : sum local = 1.75925e-10, global = 6.76539e-23, cumulative = 6.4093e-23
ExecutionTime = 13988.6 s  ClockTime = 14065 s

Time = 0.00035

Courant Number mean: 0.00443142 max: 0.0957
DILUPBiCGStab:  Solving for Ux, Initial residual = 0.0112966, Final residual = 9.11862e-06, No Iterations 5
DILUPBiCGStab:  Solving for Uy, Initial residual = 0.0181184, Final residual = 1.04503e-05, No Iterations 5
DILUPBiCGStab:  Solving for Uz, Initial residual = 0.0356024, Final residual = 4.07194e-05, No Iterations 5
linear solve U 11528.8 [ms]
piso setup 1123.31 [ms]
 correctNonOrthogonal 
 setRef 
 startSolve 
PETSc-cg:  Solving for p, Initial residual = 0.0157713, Final residual = 9.94692e-05, No Iterations 2903
linear solve p 362565 [ms]
piso step 363321 [ms]
 contErrors 
time step continuity errors : sum local = 1.73686e-10, global = 1.80463e-22, cumulative = 2.44556e-22
piso setup 1084.54 [ms]
 correctNonOrthogonal 
 setRef 
 startSolve 
PETSc-cg:  Solving for p, Initial residual = 0.0148988, Final residual = 9.99648e-05, No Iterations 2900
linear solve p 389690 [ms]
piso step 390148 [ms]
 contErrors 
time step continuity errors : sum local = 1.74643e-10, global = 8.79614e-24, cumulative = 2.53352e-22
ExecutionTime = 14754 s  ClockTime = 14835 s

Time = 0.000375

Courant Number mean: 0.00457851 max: 0.095855
DILUPBiCGStab:  Solving for Ux, Initial residual = 0.0105439, Final residual = 8.06968e-06, No Iterations 5
DILUPBiCGStab:  Solving for Uy, Initial residual = 0.0167805, Final residual = 9.56972e-06, No Iterations 5
DILUPBiCGStab:  Solving for Uz, Initial residual = 0.0315628, Final residual = 2.37234e-05, No Iterations 5
linear solve U 6534.35 [ms]
piso setup 1076.91 [ms]
 correctNonOrthogonal 
 setRef 
 startSolve 
PETSc-cg:  Solving for p, Initial residual = 0.0142987, Final residual = 9.93342e-05, No Iterations 1183
linear solve p 170436 [ms]
piso step 170888 [ms]
 contErrors 
time step continuity errors : sum local = 1.78362e-10, global = 6.71264e-23, cumulative = 3.20479e-22
piso setup 1058.75 [ms]
 correctNonOrthogonal 
 setRef 
 startSolve 
PETSc-cg:  Solving for p, Initial residual = 0.0135468, Final residual = 9.94963e-05, No Iterations 1173
linear solve p 185569 [ms]
piso step 186085 [ms]
 contErrors 
time step continuity errors : sum local = 1.75841e-10, global = -4.16939e-23, cumulative = 2.78785e-22
ExecutionTime = 15119.7 s  ClockTime = 15202 s

Time = 0.0004

Courant Number mean: 0.004719 max: 0.0959932
DILUPBiCGStab:  Solving for Ux, Initial residual = 0.0098908, Final residual = 7.24297e-06, No Iterations 5
DILUPBiCGStab:  Solving for Uy, Initial residual = 0.0156132, Final residual = 8.79214e-06, No Iterations 5
DILUPBiCGStab:  Solving for Uz, Initial residual = 0.029978, Final residual = 1.84672e-05, No Iterations 5
linear solve U 10262.3 [ms]
piso setup 1128.23 [ms]
 correctNonOrthogonal 
 setRef 
 startSolve 
PETSc-cg:  Solving for p, Initial residual = 0.0128588, Final residual = 9.88593e-05, No Iterations 1190
linear solve p 154720 [ms]
piso step 155249 [ms]
 contErrors 
time step continuity errors : sum local = 1.78101e-10, global = -5.92242e-24, cumulative = 2.72862e-22
piso setup 1105.96 [ms]
 correctNonOrthogonal 
 setRef 
 startSolve 
PETSc-cg:  Solving for p, Initial residual = 0.0122567, Final residual = 9.75785e-05, No Iterations 1174
linear solve p 156202 [ms]
piso step 156642 [ms]
 contErrors 
time step continuity errors : sum local = 1.71518e-10, global = 5.57285e-23, cumulative = 3.28591e-22
ExecutionTime = 15444.9 s  ClockTime = 15529 s

Time = 0.000425

Courant Number mean: 0.00485338 max: 0.0961176
DILUPBiCGStab:  Solving for Ux, Initial residual = 0.00931075, Final residual = 6.58462e-06, No Iterations 5
DILUPBiCGStab:  Solving for Uy, Initial residual = 0.0146052, Final residual = 8.15472e-06, No Iterations 5
DILUPBiCGStab:  Solving for Uz, Initial residual = 0.028145, Final residual = 1.89973e-05, No Iterations 5
linear solve U 6576.33 [ms]
piso setup 1090.69 [ms]
 correctNonOrthogonal 
 setRef 
 startSolve 
PETSc-cg:  Solving for p, Initial residual = 0.0117049, Final residual = 9.95018e-05, No Iterations 1307
linear solve p 173739 [ms]
piso step 174163 [ms]
 contErrors 
time step continuity errors : sum local = 1.80461e-10, global = -4.28221e-23, cumulative = 2.85769e-22
piso setup 1091.39 [ms]
 correctNonOrthogonal 
 setRef 
 startSolve 
PETSc-cg:  Solving for p, Initial residual = 0.0111791, Final residual = 9.98843e-05, No Iterations 1273
linear solve p 172632 [ms]
piso step 173046 [ms]
 contErrors 
time step continuity errors : sum local = 1.7701e-10, global = -4.81949e-23, cumulative = 2.37574e-22
ExecutionTime = 15801.2 s  ClockTime = 15887 s

Time = 0.00045

Courant Number mean: 0.00498241 max: 0.0962302
DILUPBiCGStab:  Solving for Ux, Initial residual = 0.00880041, Final residual = 6.05457e-06, No Iterations 5
DILUPBiCGStab:  Solving for Uy, Initial residual = 0.0137064, Final residual = 7.5872e-06, No Iterations 5
DILUPBiCGStab:  Solving for Uz, Initial residual = 0.0268818, Final residual = 1.82881e-05, No Iterations 5
linear solve U 6522.09 [ms]
piso setup 1146.37 [ms]
 correctNonOrthogonal 
 setRef 
 startSolve 
PETSc-cg:  Solving for p, Initial residual = 0.0108854, Final residual = 9.99012e-05, No Iterations 1297
linear solve p 187168 [ms]
piso step 187581 [ms]
 contErrors 
time step continuity errors : sum local = 1.82064e-10, global = -2.07655e-23, cumulative = 2.16808e-22
piso setup 1227.88 [ms]
 correctNonOrthogonal 
 setRef 
 startSolve 
PETSc-cg:  Solving for p, Initial residual = 0.0104176, Final residual = 9.96281e-05, No Iterations 1218
linear solve p 176805 [ms]
piso step 177311 [ms]
 contErrors 
time step continuity errors : sum local = 1.75866e-10, global = -5.75965e-23, cumulative = 1.59212e-22
ExecutionTime = 16175.2 s  ClockTime = 16263 s

Time = 0.000475

Courant Number mean: 0.00510644 max: 0.096333
DILUPBiCGStab:  Solving for Ux, Initial residual = 0.0083376, Final residual = 5.62711e-06, No Iterations 5
DILUPBiCGStab:  Solving for Uy, Initial residual = 0.0129216, Final residual = 7.10727e-06, No Iterations 5
DILUPBiCGStab:  Solving for Uz, Initial residual = 0.0254263, Final residual = 1.95719e-05, No Iterations 5
linear solve U 10630.4 [ms]
piso setup 1182.96 [ms]
 correctNonOrthogonal 
 setRef 
 startSolve 
PETSc-cg:  Solving for p, Initial residual = 0.0101868, Final residual = 9.92878e-05, No Iterations 1312
linear solve p 178167 [ms]
piso step 178800 [ms]
 contErrors 
time step continuity errors : sum local = 1.82566e-10, global = -8.94654e-23, cumulative = 6.97465e-23
piso setup 1159.3 [ms]
 correctNonOrthogonal 
 setRef 
 startSolve 
PETSc-cg:  Solving for p, Initial residual = 0.00974851, Final residual = 9.9626e-05, No Iterations 1284
linear solve p 194577 [ms]
piso step 195291 [ms]
 contErrors 
time step continuity errors : sum local = 1.77278e-10, global = -6.2087e-23, cumulative = 7.65946e-24
ExecutionTime = 16562.4 s  ClockTime = 16652 s

Time = 0.0005

Courant Number mean: 0.00522603 max: 0.0964271
DILUPBiCGStab:  Solving for Ux, Initial residual = 0.00792807, Final residual = 5.29099e-06, No Iterations 5
DILUPBiCGStab:  Solving for Uy, Initial residual = 0.0122057, Final residual = 6.67707e-06, No Iterations 5
DILUPBiCGStab:  Solving for Uz, Initial residual = 0.0242589, Final residual = 1.97399e-05, No Iterations 5
linear solve U 11323 [ms]
piso setup 1123.73 [ms]
 correctNonOrthogonal 
 setRef 
 startSolve 
PETSc-cg:  Solving for p, Initial residual = 0.00957961, Final residual = 9.99275e-05, No Iterations 1292
linear solve p 176211 [ms]
piso step 176860 [ms]
 contErrors 
time step continuity errors : sum local = 1.84976e-10, global = 4.35782e-23, cumulative = 5.12377e-23
piso setup 1074.06 [ms]
 correctNonOrthogonal 
 setRef 
 startSolve 
PETSc-cg:  Solving for p, Initial residual = 0.00918671, Final residual = 9.97923e-05, No Iterations 1179
linear solve p 158618 [ms]
piso step 159144 [ms]
 contErrors 
time step continuity errors : sum local = 1.77145e-10, global = 8.35808e-24, cumulative = 5.95957e-23
ExecutionTime = 16912.3 s  ClockTime = 17004 s

End

Finalizing PETSc
Finalising parallel run
================================================================================
hash: 085ec7e8cdda3e269f4450f5f0997a26
/*---------------------------------------------------------------------------*\
| =========                 |                                                 |
| \\      /  F ield         | OpenFOAM: The Open Source CFD Toolbox           |
|  \\    /   O peration     | Version:  v2106                                 |
|   \\  /    A nd           | Website:  www.openfoam.com                      |
|    \\/     M anipulation  |                                                 |
\*---------------------------------------------------------------------------*/
Build  : f815a12bba-20210902 OPENFOAM=2106
Arch   : "LSB;label=32;scalar=64"
Exec   : icoFoam -parallel
Date   : Oct 06 2022
Time   : 14:59:07
Host   : nla-gpu2.ianm.kit.edu
PID    : 1641455
I/O    : uncollated
Case   : /home/greole/data/code/ogl_labbook/lidDrivenCavity/single_node/mesh/400/matrix_solver/CG_NoPrecond_PETSC_HIP/mpiRank_of/32/base
nProcs : 32
Hosts  :
(
    (nla-gpu2.ianm.kit.edu 32)
)
Pstream initialized with:
    floatTransfer      : 0
    nProcsSimpleSum    : 0
    commsType          : nonBlocking
    polling iterations : 0
trapFpe: Floating point exception trapping enabled (FOAM_SIGFPE).
fileModificationChecking : Monitoring run-time modified files using timeStampMaster (fileModificationSkew 5, maxFileModificationPolls 20)
allowSystemOperations : Allowing user-supplied system call operations

// * * * * * * * * * * * * * * * * * * * * * * * * * * * * * * * * * * * * * //
Create time

Create mesh for time = 0


PISO: Operating solver in PISO mode

Reading transportProperties

Reading field p

Reading field U

Reading/calculating face flux field phi


Starting time loop

Time = 2.5e-05

Courant Number mean: 0 max: 0
DILUPBiCGStab:  Solving for Ux, Initial residual = 1, Final residual = 0.00138472, No Iterations 5
DILUPBiCGStab:  Solving for Uy:  solution singularity
DILUPBiCGStab:  Solving for Uz:  solution singularity
linear solve U 1950.84 [ms]
piso setup 661.909 [ms]
 correctNonOrthogonal 
 setRef 
 startSolve 
Initializing PETSc
PETSc-cg:  Solving for p, Initial residual = 1, Final residual = 9.92545e-05, No Iterations 3256
linear solve p 874654 [ms]
piso step 874939 [ms]
 contErrors 
time step continuity errors : sum local = 2.41817e-10, global = 1.86286e-22, cumulative = 1.86286e-22
piso setup 726.553 [ms]
 correctNonOrthogonal 
 setRef 
 startSolve 
PETSc-cg:  Solving for p, Initial residual = 0.71766, Final residual = 9.98313e-05, No Iterations 3237
linear solve p 871738 [ms]
piso step 872083 [ms]
 contErrors 
time step continuity errors : sum local = 3.27457e-10, global = -3.33134e-23, cumulative = 1.52972e-22
ExecutionTime = 1756.72 s  ClockTime = 1764 s

Time = 5e-05

Courant Number mean: 0.00116724 max: 0.075131
DILUPBiCGStab:  Solving for Ux, Initial residual = 0.159863, Final residual = 0.000886592, No Iterations 5
DILUPBiCGStab:  Solving for Uy, Initial residual = 0.348724, Final residual = 0.000948013, No Iterations 5
DILUPBiCGStab:  Solving for Uz, Initial residual = 0.994661, Final residual = 0.00355307, No Iterations 5
linear solve U 5496.84 [ms]
piso setup 738.663 [ms]
 correctNonOrthogonal 
 setRef 
 startSolve 
PETSc-cg:  Solving for p, Initial residual = 0.662877, Final residual = 9.88237e-05, No Iterations 3180
linear solve p 827999 [ms]
piso step 828336 [ms]
 contErrors 
time step continuity errors : sum local = 3.55275e-10, global = -4.66079e-23, cumulative = 1.06364e-22
piso setup 892.985 [ms]
 correctNonOrthogonal 
 setRef 
 startSolve 
PETSc-cg:  Solving for p, Initial residual = 0.588461, Final residual = 9.89098e-05, No Iterations 3174
linear solve p 821617 [ms]
piso step 822020 [ms]
 contErrors 
time step continuity errors : sum local = 3.61809e-10, global = 1.47363e-23, cumulative = 1.21101e-22
ExecutionTime = 3409.98 s  ClockTime = 3423 s

Time = 7.5e-05

Courant Number mean: 0.0017804 max: 0.0870161
DILUPBiCGStab:  Solving for Ux, Initial residual = 0.0661614, Final residual = 0.000264838, No Iterations 5
DILUPBiCGStab:  Solving for Uy, Initial residual = 0.138226, Final residual = 0.000268004, No Iterations 5
DILUPBiCGStab:  Solving for Uz, Initial residual = 0.438205, Final residual = 0.00189002, No Iterations 5
linear solve U 6108.61 [ms]
piso setup 854.564 [ms]
 correctNonOrthogonal 
 setRef 
 startSolve 
PETSc-cg:  Solving for p, Initial residual = 0.561916, Final residual = 9.93098e-05, No Iterations 3133
linear solve p 801125 [ms]
piso step 801507 [ms]
 contErrors 
time step continuity errors : sum local = 2.5426e-10, global = 3.43587e-23, cumulative = 1.55459e-22
piso setup 950.559 [ms]
 correctNonOrthogonal 
 setRef 
 startSolve 
PETSc-cg:  Solving for p, Initial residual = 0.504392, Final residual = 9.92464e-05, No Iterations 3126
linear solve p 797464 [ms]
piso step 797868 [ms]
 contErrors 
time step continuity errors : sum local = 2.48678e-10, global = 7.00801e-24, cumulative = 1.62467e-22
ExecutionTime = 5012.92 s  ClockTime = 5032 s

Time = 0.0001

Courant Number mean: 0.00220759 max: 0.090316
DILUPBiCGStab:  Solving for Ux, Initial residual = 0.0437032, Final residual = 0.000117706, No Iterations 5
DILUPBiCGStab:  Solving for Uy, Initial residual = 0.0872305, Final residual = 0.000107908, No Iterations 5
DILUPBiCGStab:  Solving for Uz, Initial residual = 0.134067, Final residual = 0.000387159, No Iterations 5
linear solve U 6769.11 [ms]
piso setup 1078.17 [ms]
 correctNonOrthogonal 
 setRef 
 startSolve 
PETSc-cg:  Solving for p, Initial residual = 0.326172, Final residual = 9.98197e-05, No Iterations 1487
linear solve p 383683 [ms]
piso step 384104 [ms]
 contErrors 
time step continuity errors : sum local = 2.31752e-10, global = 2.51825e-23, cumulative = 1.8765e-22
piso setup 1113.21 [ms]
 correctNonOrthogonal 
 setRef 
 startSolve 
PETSc-cg:  Solving for p, Initial residual = 0.271546, Final residual = 9.85519e-05, No Iterations 1467
linear solve p 374815 [ms]
piso step 375238 [ms]
 contErrors 
time step continuity errors : sum local = 2.20233e-10, global = -5.4643e-23, cumulative = 1.33007e-22
ExecutionTime = 5780.19 s  ClockTime = 5803 s

Time = 0.000125

Courant Number mean: 0.00255333 max: 0.091904
DILUPBiCGStab:  Solving for Ux, Initial residual = 0.0332648, Final residual = 7.29166e-05, No Iterations 5
DILUPBiCGStab:  Solving for Uy, Initial residual = 0.0630336, Final residual = 6.55547e-05, No Iterations 5
DILUPBiCGStab:  Solving for Uz, Initial residual = 0.0922799, Final residual = 0.000256897, No Iterations 5
linear solve U 6985.26 [ms]
piso setup 1181.8 [ms]
 correctNonOrthogonal 
 setRef 
 startSolve 
PETSc-cg:  Solving for p, Initial residual = 0.218998, Final residual = 9.89975e-05, No Iterations 1437
linear solve p 350512 [ms]
piso step 350947 [ms]
 contErrors 
time step continuity errors : sum local = 1.92455e-10, global = -1.77185e-23, cumulative = 1.15288e-22
piso setup 1170.25 [ms]
 correctNonOrthogonal 
 setRef 
 startSolve 
PETSc-cg:  Solving for p, Initial residual = 0.184874, Final residual = 9.81591e-05, No Iterations 1434
linear solve p 351375 [ms]
piso step 351809 [ms]
 contErrors 
time step continuity errors : sum local = 1.87733e-10, global = -1.14875e-22, cumulative = 4.13146e-25
ExecutionTime = 6491.78 s  ClockTime = 6517 s

Time = 0.00015

Courant Number mean: 0.00284853 max: 0.0928884
DILUPBiCGStab:  Solving for Ux, Initial residual = 0.0270568, Final residual = 5.00341e-05, No Iterations 5
DILUPBiCGStab:  Solving for Uy, Initial residual = 0.0495079, Final residual = 3.20568e-05, No Iterations 5
DILUPBiCGStab:  Solving for Uz, Initial residual = 0.0804528, Final residual = 0.000162312, No Iterations 5
linear solve U 7201.11 [ms]
piso setup 1138.39 [ms]
 correctNonOrthogonal 
 setRef 
 startSolve 
PETSc-cg:  Solving for p, Initial residual = 0.131867, Final residual = 9.74272e-05, No Iterations 1451
linear solve p 347656 [ms]
piso step 348084 [ms]
 contErrors 
time step continuity errors : sum local = 1.95768e-10, global = 1.02105e-25, cumulative = 5.15251e-25
piso setup 1188.01 [ms]
 correctNonOrthogonal 
 setRef 
 startSolve 
PETSc-cg:  Solving for p, Initial residual = 0.109336, Final residual = 9.86732e-05, No Iterations 1375
linear solve p 322434 [ms]
piso step 322856 [ms]
 contErrors 
time step continuity errors : sum local = 1.89011e-10, global = -1.09666e-24, cumulative = -5.81409e-25
ExecutionTime = 7171.82 s  ClockTime = 7199 s

Time = 0.000175

Courant Number mean: 0.00310899 max: 0.0935743
DILUPBiCGStab:  Solving for Ux, Initial residual = 0.0228913, Final residual = 3.66687e-05, No Iterations 5
DILUPBiCGStab:  Solving for Uy, Initial residual = 0.0407774, Final residual = 2.86052e-05, No Iterations 5
DILUPBiCGStab:  Solving for Uz, Initial residual = 0.0683236, Final residual = 0.000108483, No Iterations 5
linear solve U 6862.82 [ms]
piso setup 1189.75 [ms]
 correctNonOrthogonal 
 setRef 
 startSolve 
PETSc-cg:  Solving for p, Initial residual = 0.0907172, Final residual = 9.88568e-05, No Iterations 1427
linear solve p 333464 [ms]
piso step 333860 [ms]
 contErrors 
time step continuity errors : sum local = 1.84453e-10, global = -1.76177e-23, cumulative = -1.81991e-23
piso setup 1197.72 [ms]
 correctNonOrthogonal 
 setRef 
 startSolve 
PETSc-cg:  Solving for p, Initial residual = 0.0760156, Final residual = 9.83393e-05, No Iterations 1380
linear solve p 319786 [ms]
piso step 320206 [ms]
 contErrors 
time step continuity errors : sum local = 1.77565e-10, global = 3.85778e-23, cumulative = 2.03787e-23
ExecutionTime = 7834.44 s  ClockTime = 7865 s

Time = 0.0002

Courant Number mean: 0.00334351 max: 0.0940885
DILUPBiCGStab:  Solving for Ux, Initial residual = 0.0199009, Final residual = 2.8084e-05, No Iterations 5
DILUPBiCGStab:  Solving for Uy, Initial residual = 0.0346169, Final residual = 2.08578e-05, No Iterations 5
DILUPBiCGStab:  Solving for Uz, Initial residual = 0.061087, Final residual = 8.09709e-05, No Iterations 5
linear solve U 6913.18 [ms]
piso setup 1141.64 [ms]
 correctNonOrthogonal 
 setRef 
 startSolve 
PETSc-cg:  Solving for p, Initial residual = 0.0587773, Final residual = 9.95455e-05, No Iterations 2976
linear solve p 690530 [ms]
piso step 690961 [ms]
 contErrors 
time step continuity errors : sum local = 1.76682e-10, global = 5.38523e-23, cumulative = 7.4231e-23
piso setup 1181.81 [ms]
 correctNonOrthogonal 
 setRef 
 startSolve 
PETSc-cg:  Solving for p, Initial residual = 0.0504994, Final residual = 9.87832e-05, No Iterations 1441
linear solve p 334709 [ms]
piso step 335155 [ms]
 contErrors 
time step continuity errors : sum local = 1.90693e-10, global = -7.54932e-23, cumulative = -1.26214e-24
ExecutionTime = 8867.57 s  ClockTime = 8902 s

Time = 0.000225

Courant Number mean: 0.00355785 max: 0.094492
DILUPBiCGStab:  Solving for Ux, Initial residual = 0.0176117, Final residual = 2.19627e-05, No Iterations 5
DILUPBiCGStab:  Solving for Uy, Initial residual = 0.0301157, Final residual = 1.90959e-05, No Iterations 5
DILUPBiCGStab:  Solving for Uz, Initial residual = 0.0557599, Final residual = 8.36269e-05, No Iterations 5
linear solve U 7011.74 [ms]
piso setup 1121.05 [ms]
 correctNonOrthogonal 
 setRef 
 startSolve 
PETSc-cg:  Solving for p, Initial residual = 0.0437157, Final residual = 9.93637e-05, No Iterations 2958
linear solve p 684508 [ms]
piso step 684967 [ms]
 contErrors 
time step continuity errors : sum local = 1.74901e-10, global = 1.62843e-24, cumulative = 3.66294e-25
piso setup 1132.91 [ms]
 correctNonOrthogonal 
 setRef 
 startSolve 
PETSc-cg:  Solving for p, Initial residual = 0.0379187, Final residual = 9.96112e-05, No Iterations 2943
linear solve p 696555 [ms]
piso step 697041 [ms]
 contErrors 
time step continuity errors : sum local = 1.75389e-10, global = -8.11632e-23, cumulative = -8.07969e-23
ExecutionTime = 10255.5 s  ClockTime = 10295 s

Time = 0.00025

Courant Number mean: 0.00375594 max: 0.0948197
DILUPBiCGStab:  Solving for Ux, Initial residual = 0.0158256, Final residual = 1.76788e-05, No Iterations 5
DILUPBiCGStab:  Solving for Uy, Initial residual = 0.0265961, Final residual = 1.60166e-05, No Iterations 5
DILUPBiCGStab:  Solving for Uz, Initial residual = 0.0473529, Final residual = 5.31135e-05, No Iterations 5
linear solve U 7029.83 [ms]
piso setup 1049.77 [ms]
 correctNonOrthogonal 
 setRef 
 startSolve 
PETSc-cg:  Solving for p, Initial residual = 0.0320096, Final residual = 9.96634e-05, No Iterations 1274
linear solve p 296004 [ms]
piso step 296465 [ms]
 contErrors 
time step continuity errors : sum local = 1.88657e-10, global = 9.99118e-23, cumulative = 1.91149e-23
piso setup 1242.94 [ms]
 correctNonOrthogonal 
 setRef 
 startSolve 
PETSc-cg:  Solving for p, Initial residual = 0.0285182, Final residual = 9.95667e-05, No Iterations 1241
linear solve p 302405 [ms]
piso step 302891 [ms]
 contErrors 
time step continuity errors : sum local = 1.80379e-10, global = -1.16122e-23, cumulative = 7.50267e-24
ExecutionTime = 10863.7 s  ClockTime = 10906 s

Time = 0.000275

Courant Number mean: 0.00394045 max: 0.0950927
DILUPBiCGStab:  Solving for Ux, Initial residual = 0.0143678, Final residual = 1.45315e-05, No Iterations 5
DILUPBiCGStab:  Solving for Uy, Initial residual = 0.0238367, Final residual = 1.44842e-05, No Iterations 5
DILUPBiCGStab:  Solving for Uz, Initial residual = 0.0438234, Final residual = 4.62139e-05, No Iterations 5
linear solve U 7872.15 [ms]
piso setup 1129.39 [ms]
 correctNonOrthogonal 
 setRef 
 startSolve 
PETSc-cg:  Solving for p, Initial residual = 0.0258155, Final residual = 9.99678e-05, No Iterations 1312
linear solve p 318643 [ms]
piso step 319119 [ms]
 contErrors 
time step continuity errors : sum local = 1.82485e-10, global = 8.27762e-23, cumulative = 9.02789e-23
piso setup 1283.99 [ms]
 correctNonOrthogonal 
 setRef 
 startSolve 
PETSc-cg:  Solving for p, Initial residual = 0.0233874, Final residual = 9.96759e-05, No Iterations 1254
linear solve p 312147 [ms]
piso step 312649 [ms]
 contErrors 
time step continuity errors : sum local = 1.74792e-10, global = 1.06797e-23, cumulative = 1.00959e-22
ExecutionTime = 11505.5 s  ClockTime = 11550 s

Time = 0.0003

Courant Number mean: 0.00411347 max: 0.0953247
DILUPBiCGStab:  Solving for Ux, Initial residual = 0.0131727, Final residual = 1.2215e-05, No Iterations 5
DILUPBiCGStab:  Solving for Uy, Initial residual = 0.0215646, Final residual = 1.27283e-05, No Iterations 5
DILUPBiCGStab:  Solving for Uz, Initial residual = 0.0410088, Final residual = 4.17652e-05, No Iterations 5
linear solve U 8557.05 [ms]
piso setup 1198.48 [ms]
 correctNonOrthogonal 
 setRef 
 startSolve 
PETSc-cg:  Solving for p, Initial residual = 0.0206832, Final residual = 9.89389e-05, No Iterations 1435
linear solve p 333876 [ms]
piso step 334362 [ms]
 contErrors 
time step continuity errors : sum local = 1.90215e-10, global = -4.46212e-23, cumulative = 5.63373e-23
piso setup 1377.02 [ms]
 correctNonOrthogonal 
 setRef 
 startSolve 
PETSc-cg:  Solving for p, Initial residual = 0.0191765, Final residual = 9.9163e-05, No Iterations 1347
linear solve p 317445 [ms]
piso step 317959 [ms]
 contErrors 
time step continuity errors : sum local = 1.80318e-10, global = -1.27593e-23, cumulative = 4.35781e-23
ExecutionTime = 12168.8 s  ClockTime = 12216 s

Time = 0.000325

Courant Number mean: 0.00427673 max: 0.0955249
DILUPBiCGStab:  Solving for Ux, Initial residual = 0.0121539, Final residual = 1.04581e-05, No Iterations 5
DILUPBiCGStab:  Solving for Uy, Initial residual = 0.0197134, Final residual = 1.15664e-05, No Iterations 5
DILUPBiCGStab:  Solving for Uz, Initial residual = 0.0380464, Final residual = 4.19431e-05, No Iterations 5
linear solve U 8762.56 [ms]
piso setup 1258.95 [ms]
 correctNonOrthogonal 
 setRef 
 startSolve 
PETSc-cg:  Solving for p, Initial residual = 0.0181298, Final residual = 9.85918e-05, No Iterations 1369
linear solve p 317965 [ms]
piso step 318469 [ms]
 contErrors 
time step continuity errors : sum local = 1.84068e-10, global = -4.7139e-23, cumulative = -3.56088e-24
piso setup 1355.57 [ms]
 correctNonOrthogonal 
 setRef 
 startSolve 
PETSc-cg:  Solving for p, Initial residual = 0.0169187, Final residual = 9.9869e-05, No Iterations 1277
linear solve p 297105 [ms]
piso step 297624 [ms]
 contErrors 
time step continuity errors : sum local = 1.75925e-10, global = 6.76539e-23, cumulative = 6.4093e-23
ExecutionTime = 12796.1 s  ClockTime = 12846 s

Time = 0.00035

Courant Number mean: 0.00443142 max: 0.0957
DILUPBiCGStab:  Solving for Ux, Initial residual = 0.0112966, Final residual = 9.11862e-06, No Iterations 5
DILUPBiCGStab:  Solving for Uy, Initial residual = 0.0181184, Final residual = 1.04503e-05, No Iterations 5
DILUPBiCGStab:  Solving for Uz, Initial residual = 0.0356024, Final residual = 4.07194e-05, No Iterations 5
linear solve U 8538.69 [ms]
piso setup 1382.78 [ms]
 correctNonOrthogonal 
 setRef 
 startSolve 
PETSc-cg:  Solving for p, Initial residual = 0.0157713, Final residual = 9.94692e-05, No Iterations 2903
linear solve p 669627 [ms]
piso step 670121 [ms]
 contErrors 
time step continuity errors : sum local = 1.73686e-10, global = 1.80463e-22, cumulative = 2.44556e-22
piso setup 1484.53 [ms]
 correctNonOrthogonal 
 setRef 
 startSolve 
PETSc-cg:  Solving for p, Initial residual = 0.0148988, Final residual = 9.99648e-05, No Iterations 2900
linear solve p 664955 [ms]
piso step 665439 [ms]
 contErrors 
time step continuity errors : sum local = 1.74643e-10, global = 8.79614e-24, cumulative = 2.53352e-22
ExecutionTime = 14139.5 s  ClockTime = 14195 s

Time = 0.000375

Courant Number mean: 0.00457851 max: 0.095855
DILUPBiCGStab:  Solving for Ux, Initial residual = 0.0105439, Final residual = 8.06968e-06, No Iterations 5
DILUPBiCGStab:  Solving for Uy, Initial residual = 0.0167805, Final residual = 9.56972e-06, No Iterations 5
DILUPBiCGStab:  Solving for Uz, Initial residual = 0.0315628, Final residual = 2.37234e-05, No Iterations 5
linear solve U 7810.76 [ms]
piso setup 1304.64 [ms]
 correctNonOrthogonal 
 setRef 
 startSolve 
PETSc-cg:  Solving for p, Initial residual = 0.0142987, Final residual = 9.93342e-05, No Iterations 1183
linear solve p 271898 [ms]
piso step 272387 [ms]
 contErrors 
time step continuity errors : sum local = 1.78362e-10, global = 6.71264e-23, cumulative = 3.20479e-22
piso setup 1326.59 [ms]
 correctNonOrthogonal 
 setRef 
 startSolve 
PETSc-cg:  Solving for p, Initial residual = 0.0135468, Final residual = 9.94963e-05, No Iterations 1173
linear solve p 274336 [ms]
piso step 274855 [ms]
 contErrors 
time step continuity errors : sum local = 1.75841e-10, global = -4.16939e-23, cumulative = 2.78785e-22
ExecutionTime = 14697.2 s  ClockTime = 14754 s

Time = 0.0004

Courant Number mean: 0.004719 max: 0.0959932
DILUPBiCGStab:  Solving for Ux, Initial residual = 0.0098908, Final residual = 7.24297e-06, No Iterations 5
DILUPBiCGStab:  Solving for Uy, Initial residual = 0.0156132, Final residual = 8.79214e-06, No Iterations 5
DILUPBiCGStab:  Solving for Uz, Initial residual = 0.029978, Final residual = 1.84672e-05, No Iterations 5
linear solve U 7917.3 [ms]
piso setup 1193.5 [ms]
 correctNonOrthogonal 
 setRef 
 startSolve 
PETSc-cg:  Solving for p, Initial residual = 0.0128588, Final residual = 9.88593e-05, No Iterations 1190
linear solve p 276192 [ms]
piso step 276754 [ms]
 contErrors 
time step continuity errors : sum local = 1.78101e-10, global = -5.92242e-24, cumulative = 2.72862e-22
piso setup 1115.48 [ms]
 correctNonOrthogonal 
 setRef 
 startSolve 
PETSc-cg:  Solving for p, Initial residual = 0.0122567, Final residual = 9.75785e-05, No Iterations 1174
linear solve p 271944 [ms]
piso step 272566 [ms]
 contErrors 
time step continuity errors : sum local = 1.71518e-10, global = 5.57285e-23, cumulative = 3.28591e-22
ExecutionTime = 15256.9 s  ClockTime = 15316 s

Time = 0.000425

Courant Number mean: 0.00485338 max: 0.0961176
DILUPBiCGStab:  Solving for Ux, Initial residual = 0.00931075, Final residual = 6.58462e-06, No Iterations 5
DILUPBiCGStab:  Solving for Uy, Initial residual = 0.0146052, Final residual = 8.15472e-06, No Iterations 5
DILUPBiCGStab:  Solving for Uz, Initial residual = 0.028145, Final residual = 1.89973e-05, No Iterations 5
linear solve U 7896.3 [ms]
piso setup 1154.61 [ms]
 correctNonOrthogonal 
 setRef 
 startSolve 
PETSc-cg:  Solving for p, Initial residual = 0.0117049, Final residual = 9.95018e-05, No Iterations 1307
linear solve p 310581 [ms]
piso step 311186 [ms]
 contErrors 
time step continuity errors : sum local = 1.80461e-10, global = -4.28221e-23, cumulative = 2.85769e-22
piso setup 1187.54 [ms]
 correctNonOrthogonal 
 setRef 
 startSolve 
PETSc-cg:  Solving for p, Initial residual = 0.0111791, Final residual = 9.98843e-05, No Iterations 1273
linear solve p 297347 [ms]
piso step 298021 [ms]
 contErrors 
time step continuity errors : sum local = 1.7701e-10, global = -4.81949e-23, cumulative = 2.37574e-22
ExecutionTime = 15876.1 s  ClockTime = 15938 s

Time = 0.00045

Courant Number mean: 0.00498241 max: 0.0962302
DILUPBiCGStab:  Solving for Ux, Initial residual = 0.00880041, Final residual = 6.05457e-06, No Iterations 5
DILUPBiCGStab:  Solving for Uy, Initial residual = 0.0137064, Final residual = 7.5872e-06, No Iterations 5
DILUPBiCGStab:  Solving for Uz, Initial residual = 0.0268818, Final residual = 1.82881e-05, No Iterations 5
linear solve U 8120.56 [ms]
piso setup 1164.93 [ms]
 correctNonOrthogonal 
 setRef 
 startSolve 
PETSc-cg:  Solving for p, Initial residual = 0.0108854, Final residual = 9.99012e-05, No Iterations 1297
linear solve p 337044 [ms]
piso step 337707 [ms]
 contErrors 
time step continuity errors : sum local = 1.82064e-10, global = -2.07655e-23, cumulative = 2.16808e-22
piso setup 1289.6 [ms]
 correctNonOrthogonal 
 setRef 
 startSolve 
PETSc-cg:  Solving for p, Initial residual = 0.0104176, Final residual = 9.96281e-05, No Iterations 1218
linear solve p 338617 [ms]
piso step 339349 [ms]
 contErrors 
time step continuity errors : sum local = 1.75866e-10, global = -5.75965e-23, cumulative = 1.59212e-22
ExecutionTime = 16563.4 s  ClockTime = 16628 s

Time = 0.000475

Courant Number mean: 0.00510644 max: 0.096333
DILUPBiCGStab:  Solving for Ux, Initial residual = 0.0083376, Final residual = 5.62711e-06, No Iterations 5
DILUPBiCGStab:  Solving for Uy, Initial residual = 0.0129216, Final residual = 7.10727e-06, No Iterations 5
DILUPBiCGStab:  Solving for Uz, Initial residual = 0.0254263, Final residual = 1.95719e-05, No Iterations 5
linear solve U 11535.4 [ms]
piso setup 1226.43 [ms]
 correctNonOrthogonal 
 setRef 
 startSolve 
PETSc-cg:  Solving for p, Initial residual = 0.0101868, Final residual = 9.92878e-05, No Iterations 1312
linear solve p 280203 [ms]
piso step 281052 [ms]
 contErrors 
time step continuity errors : sum local = 1.82566e-10, global = -8.94654e-23, cumulative = 6.97465e-23
piso setup 1327.59 [ms]
 correctNonOrthogonal 
 setRef 
 startSolve 
PETSc-cg:  Solving for p, Initial residual = 0.00974851, Final residual = 9.9626e-05, No Iterations 1284
linear solve p 286770 [ms]
piso step 287509 [ms]
 contErrors 
time step continuity errors : sum local = 1.77278e-10, global = -6.2087e-23, cumulative = 7.65946e-24
ExecutionTime = 17146.2 s  ClockTime = 17214 s

Time = 0.0005

Courant Number mean: 0.00522603 max: 0.0964271
DILUPBiCGStab:  Solving for Ux, Initial residual = 0.00792807, Final residual = 5.29099e-06, No Iterations 5
DILUPBiCGStab:  Solving for Uy, Initial residual = 0.0122057, Final residual = 6.67707e-06, No Iterations 5
DILUPBiCGStab:  Solving for Uz, Initial residual = 0.0242589, Final residual = 1.97399e-05, No Iterations 5
linear solve U 11418.7 [ms]
piso setup 1195.22 [ms]
 correctNonOrthogonal 
 setRef 
 startSolve 
PETSc-cg:  Solving for p, Initial residual = 0.00957961, Final residual = 9.99275e-05, No Iterations 1292
linear solve p 308550 [ms]
piso step 309425 [ms]
 contErrors 
time step continuity errors : sum local = 1.84976e-10, global = 4.35782e-23, cumulative = 5.12377e-23
piso setup 1386.27 [ms]
 correctNonOrthogonal 
 setRef 
 startSolve 
PETSc-cg:  Solving for p, Initial residual = 0.00918671, Final residual = 9.97923e-05, No Iterations 1179
linear solve p 250708 [ms]
piso step 251618 [ms]
 contErrors 
time step continuity errors : sum local = 1.77145e-10, global = 8.35808e-24, cumulative = 5.95957e-23
ExecutionTime = 17721.6 s  ClockTime = 17791 s

End

Finalizing PETSc
Finalising parallel run
================================================================================
hash: 57485c16e688cd0fd7561c1dccb0606e
/*---------------------------------------------------------------------------*\
| =========                 |                                                 |
| \\      /  F ield         | OpenFOAM: The Open Source CFD Toolbox           |
|  \\    /   O peration     | Version:  v2106                                 |
|   \\  /    A nd           | Website:  www.openfoam.com                      |
|    \\/     M anipulation  |                                                 |
\*---------------------------------------------------------------------------*/
Build  : f815a12bba-20210902 OPENFOAM=2106
Arch   : "LSB;label=32;scalar=64"
Exec   : icoFoam -parallel
Date   : Oct 07 2022
Time   : 00:55:45
Host   : nla-gpu2.ianm.kit.edu
PID    : 1646679
I/O    : uncollated
Case   : /home/greole/data/code/ogl_labbook/lidDrivenCavity/single_node/mesh/400/matrix_solver/CG_NoPrecond_PETSC_HIP/mpiRank_of/32/base
nProcs : 32
Hosts  :
(
    (nla-gpu2.ianm.kit.edu 32)
)
Pstream initialized with:
    floatTransfer      : 0
    nProcsSimpleSum    : 0
    commsType          : nonBlocking
    polling iterations : 0
trapFpe: Floating point exception trapping enabled (FOAM_SIGFPE).
fileModificationChecking : Monitoring run-time modified files using timeStampMaster (fileModificationSkew 5, maxFileModificationPolls 20)
allowSystemOperations : Allowing user-supplied system call operations

// * * * * * * * * * * * * * * * * * * * * * * * * * * * * * * * * * * * * * //
Create time

Create mesh for time = 0


PISO: Operating solver in PISO mode

Reading transportProperties

Reading field p

Reading field U

Reading/calculating face flux field phi


Starting time loop

Time = 2.5e-05

Courant Number mean: 0 max: 0
DILUPBiCGStab:  Solving for Ux, Initial residual = 1, Final residual = 0.00138472, No Iterations 5
DILUPBiCGStab:  Solving for Uy:  solution singularity
DILUPBiCGStab:  Solving for Uz:  solution singularity
linear solve U 1948.45 [ms]
piso setup 666.91 [ms]
 correctNonOrthogonal 
 setRef 
 startSolve 
Initializing PETSc
PETSc-cg:  Solving for p, Initial residual = 1, Final residual = 9.92545e-05, No Iterations 3256
linear solve p 870735 [ms]
piso step 871023 [ms]
 contErrors 
time step continuity errors : sum local = 2.41817e-10, global = 1.86286e-22, cumulative = 1.86286e-22
piso setup 716.576 [ms]
 correctNonOrthogonal 
 setRef 
 startSolve 
PETSc-cg:  Solving for p, Initial residual = 0.71766, Final residual = 9.98313e-05, No Iterations 3237
linear solve p 850285 [ms]
piso step 850634 [ms]
 contErrors 
time step continuity errors : sum local = 3.27457e-10, global = -3.33134e-23, cumulative = 1.52972e-22
ExecutionTime = 1729.73 s  ClockTime = 1737 s

Time = 5e-05

Courant Number mean: 0.00116724 max: 0.075131
DILUPBiCGStab:  Solving for Ux, Initial residual = 0.159863, Final residual = 0.000886592, No Iterations 5
DILUPBiCGStab:  Solving for Uy, Initial residual = 0.348724, Final residual = 0.000948013, No Iterations 5
DILUPBiCGStab:  Solving for Uz, Initial residual = 0.994661, Final residual = 0.00355307, No Iterations 5
linear solve U 5559.8 [ms]
piso setup 744.986 [ms]
 correctNonOrthogonal 
 setRef 
 startSolve 
PETSc-cg:  Solving for p, Initial residual = 0.662877, Final residual = 9.88237e-05, No Iterations 3180
linear solve p 813204 [ms]
piso step 813529 [ms]
 contErrors 
time step continuity errors : sum local = 3.55275e-10, global = -4.66079e-23, cumulative = 1.06364e-22
piso setup 897.118 [ms]
 correctNonOrthogonal 
 setRef 
 startSolve 
PETSc-cg:  Solving for p, Initial residual = 0.588461, Final residual = 9.89098e-05, No Iterations 3174
linear solve p 810370 [ms]
piso step 810764 [ms]
 contErrors 
time step continuity errors : sum local = 3.61809e-10, global = 1.47363e-23, cumulative = 1.21101e-22
ExecutionTime = 3357.54 s  ClockTime = 3370 s

Time = 7.5e-05

Courant Number mean: 0.0017804 max: 0.0870161
DILUPBiCGStab:  Solving for Ux, Initial residual = 0.0661614, Final residual = 0.000264838, No Iterations 5
DILUPBiCGStab:  Solving for Uy, Initial residual = 0.138226, Final residual = 0.000268004, No Iterations 5
DILUPBiCGStab:  Solving for Uz, Initial residual = 0.438205, Final residual = 0.00189002, No Iterations 5
linear solve U 5734.36 [ms]
piso setup 869.704 [ms]
 correctNonOrthogonal 
 setRef 
 startSolve 
PETSc-cg:  Solving for p, Initial residual = 0.561916, Final residual = 9.93098e-05, No Iterations 3133
linear solve p 800139 [ms]
piso step 800534 [ms]
 contErrors 
time step continuity errors : sum local = 2.5426e-10, global = 3.43587e-23, cumulative = 1.55459e-22
piso setup 951.411 [ms]
 correctNonOrthogonal 
 setRef 
 startSolve 
PETSc-cg:  Solving for p, Initial residual = 0.504392, Final residual = 9.92464e-05, No Iterations 3126
linear solve p 798329 [ms]
piso step 798736 [ms]
 contErrors 
time step continuity errors : sum local = 2.48678e-10, global = 7.00801e-24, cumulative = 1.62467e-22
ExecutionTime = 4959.56 s  ClockTime = 4979 s

Time = 0.0001

Courant Number mean: 0.00220759 max: 0.090316
DILUPBiCGStab:  Solving for Ux, Initial residual = 0.0437032, Final residual = 0.000117706, No Iterations 5
DILUPBiCGStab:  Solving for Uy, Initial residual = 0.0872305, Final residual = 0.000107908, No Iterations 5
DILUPBiCGStab:  Solving for Uz, Initial residual = 0.134067, Final residual = 0.000387159, No Iterations 5
linear solve U 6709.48 [ms]
piso setup 1043.51 [ms]
 correctNonOrthogonal 
 setRef 
 startSolve 
PETSc-cg:  Solving for p, Initial residual = 0.326172, Final residual = 9.98197e-05, No Iterations 1487
linear solve p 380107 [ms]
piso step 380531 [ms]
 contErrors 
time step continuity errors : sum local = 2.31752e-10, global = 2.51825e-23, cumulative = 1.8765e-22
piso setup 1042.85 [ms]
 correctNonOrthogonal 
 setRef 
 startSolve 
PETSc-cg:  Solving for p, Initial residual = 0.271546, Final residual = 9.85519e-05, No Iterations 1467
linear solve p 376172 [ms]
piso step 376588 [ms]
 contErrors 
time step continuity errors : sum local = 2.20233e-10, global = -5.4643e-23, cumulative = 1.33007e-22
ExecutionTime = 5725.2 s  ClockTime = 5747 s

Time = 0.000125

Courant Number mean: 0.00255333 max: 0.091904
DILUPBiCGStab:  Solving for Ux, Initial residual = 0.0332648, Final residual = 7.29166e-05, No Iterations 5
DILUPBiCGStab:  Solving for Uy, Initial residual = 0.0630336, Final residual = 6.55547e-05, No Iterations 5
DILUPBiCGStab:  Solving for Uz, Initial residual = 0.0922799, Final residual = 0.000256897, No Iterations 5
linear solve U 7000.54 [ms]
piso setup 1177.25 [ms]
 correctNonOrthogonal 
 setRef 
 startSolve 
PETSc-cg:  Solving for p, Initial residual = 0.218998, Final residual = 9.89975e-05, No Iterations 1437
linear solve p 351163 [ms]
piso step 351592 [ms]
 contErrors 
time step continuity errors : sum local = 1.92455e-10, global = -1.77185e-23, cumulative = 1.15288e-22
piso setup 1199.32 [ms]
 correctNonOrthogonal 
 setRef 
 startSolve 
PETSc-cg:  Solving for p, Initial residual = 0.184874, Final residual = 9.81591e-05, No Iterations 1434
linear solve p 351441 [ms]
piso step 351874 [ms]
 contErrors 
time step continuity errors : sum local = 1.87733e-10, global = -1.14875e-22, cumulative = 4.13146e-25
ExecutionTime = 6437.34 s  ClockTime = 6462 s

Time = 0.00015

Courant Number mean: 0.00284853 max: 0.0928884
DILUPBiCGStab:  Solving for Ux, Initial residual = 0.0270568, Final residual = 5.00341e-05, No Iterations 5
DILUPBiCGStab:  Solving for Uy, Initial residual = 0.0495079, Final residual = 3.20568e-05, No Iterations 5
DILUPBiCGStab:  Solving for Uz, Initial residual = 0.0804528, Final residual = 0.000162312, No Iterations 5
linear solve U 7126 [ms]
piso setup 1153.73 [ms]
 correctNonOrthogonal 
 setRef 
 startSolve 
PETSc-cg:  Solving for p, Initial residual = 0.131867, Final residual = 9.74272e-05, No Iterations 1451
linear solve p 349772 [ms]
piso step 350205 [ms]
 contErrors 
time step continuity errors : sum local = 1.95768e-10, global = 1.02105e-25, cumulative = 5.15251e-25
piso setup 1167.36 [ms]
 correctNonOrthogonal 
 setRef 
 startSolve 
PETSc-cg:  Solving for p, Initial residual = 0.109336, Final residual = 9.86732e-05, No Iterations 1375
linear solve p 320999 [ms]
piso step 321433 [ms]
 contErrors 
time step continuity errors : sum local = 1.89011e-10, global = -1.09666e-24, cumulative = -5.81409e-25
ExecutionTime = 7117.83 s  ClockTime = 7145 s

Time = 0.000175

Courant Number mean: 0.00310899 max: 0.0935743
DILUPBiCGStab:  Solving for Ux, Initial residual = 0.0228913, Final residual = 3.66687e-05, No Iterations 5
DILUPBiCGStab:  Solving for Uy, Initial residual = 0.0407774, Final residual = 2.86052e-05, No Iterations 5
DILUPBiCGStab:  Solving for Uz, Initial residual = 0.0683236, Final residual = 0.000108483, No Iterations 5
linear solve U 6830.28 [ms]
piso setup 1179.06 [ms]
 correctNonOrthogonal 
 setRef 
 startSolve 
PETSc-cg:  Solving for p, Initial residual = 0.0907172, Final residual = 9.88568e-05, No Iterations 1427
linear solve p 329990 [ms]
piso step 330383 [ms]
 contErrors 
time step continuity errors : sum local = 1.84453e-10, global = -1.76177e-23, cumulative = -1.81991e-23
piso setup 1185.05 [ms]
 correctNonOrthogonal 
 setRef 
 startSolve 
PETSc-cg:  Solving for p, Initial residual = 0.0760156, Final residual = 9.83393e-05, No Iterations 1380
linear solve p 319909 [ms]
piso step 320327 [ms]
 contErrors 
time step continuity errors : sum local = 1.77565e-10, global = 3.85778e-23, cumulative = 2.03787e-23
ExecutionTime = 7777.38 s  ClockTime = 7807 s

Time = 0.0002

Courant Number mean: 0.00334351 max: 0.0940885
DILUPBiCGStab:  Solving for Ux, Initial residual = 0.0199009, Final residual = 2.8084e-05, No Iterations 5
DILUPBiCGStab:  Solving for Uy, Initial residual = 0.0346169, Final residual = 2.08578e-05, No Iterations 5
DILUPBiCGStab:  Solving for Uz, Initial residual = 0.061087, Final residual = 8.09709e-05, No Iterations 5
linear solve U 6918.03 [ms]
piso setup 1141.75 [ms]
 correctNonOrthogonal 
 setRef 
 startSolve 
PETSc-cg:  Solving for p, Initial residual = 0.0587773, Final residual = 9.95455e-05, No Iterations 2976
linear solve p 691113 [ms]
piso step 691538 [ms]
 contErrors 
time step continuity errors : sum local = 1.76682e-10, global = 5.38523e-23, cumulative = 7.4231e-23
piso setup 1172.42 [ms]
 correctNonOrthogonal 
 setRef 
 startSolve 
PETSc-cg:  Solving for p, Initial residual = 0.0504994, Final residual = 9.87832e-05, No Iterations 1441
linear solve p 334958 [ms]
piso step 335405 [ms]
 contErrors 
time step continuity errors : sum local = 1.90693e-10, global = -7.54932e-23, cumulative = -1.26214e-24
ExecutionTime = 8811.5 s  ClockTime = 8845 s

Time = 0.000225

Courant Number mean: 0.00355785 max: 0.094492
DILUPBiCGStab:  Solving for Ux, Initial residual = 0.0176117, Final residual = 2.19627e-05, No Iterations 5
DILUPBiCGStab:  Solving for Uy, Initial residual = 0.0301157, Final residual = 1.90959e-05, No Iterations 5
DILUPBiCGStab:  Solving for Uz, Initial residual = 0.0557599, Final residual = 8.36269e-05, No Iterations 5
linear solve U 6929.74 [ms]
piso setup 1132.09 [ms]
 correctNonOrthogonal 
 setRef 
 startSolve 
PETSc-cg:  Solving for p, Initial residual = 0.0437157, Final residual = 9.93637e-05, No Iterations 2958
linear solve p 686791 [ms]
piso step 687230 [ms]
 contErrors 
time step continuity errors : sum local = 1.74901e-10, global = 1.62843e-24, cumulative = 3.66294e-25
piso setup 1088.37 [ms]
 correctNonOrthogonal 
 setRef 
 startSolve 
PETSc-cg:  Solving for p, Initial residual = 0.0379187, Final residual = 9.96112e-05, No Iterations 2943
linear solve p 694035 [ms]
piso step 694504 [ms]
 contErrors 
time step continuity errors : sum local = 1.75389e-10, global = -8.11632e-23, cumulative = -8.07969e-23
ExecutionTime = 10199 s  ClockTime = 10238 s

Time = 0.00025

Courant Number mean: 0.00375594 max: 0.0948197
DILUPBiCGStab:  Solving for Ux, Initial residual = 0.0158256, Final residual = 1.76788e-05, No Iterations 5
DILUPBiCGStab:  Solving for Uy, Initial residual = 0.0265961, Final residual = 1.60166e-05, No Iterations 5
DILUPBiCGStab:  Solving for Uz, Initial residual = 0.0473529, Final residual = 5.31135e-05, No Iterations 5
linear solve U 7170.77 [ms]
piso setup 1062.73 [ms]
 correctNonOrthogonal 
 setRef 
 startSolve 
PETSc-cg:  Solving for p, Initial residual = 0.0320096, Final residual = 9.96634e-05, No Iterations 1274
linear solve p 296440 [ms]
piso step 296903 [ms]
 contErrors 
time step continuity errors : sum local = 1.88657e-10, global = 9.99118e-23, cumulative = 1.91149e-23
piso setup 1257.57 [ms]
 correctNonOrthogonal 
 setRef 
 startSolve 
PETSc-cg:  Solving for p, Initial residual = 0.0285182, Final residual = 9.95667e-05, No Iterations 1241
linear solve p 302279 [ms]
piso step 302760 [ms]
 contErrors 
time step continuity errors : sum local = 1.80379e-10, global = -1.16122e-23, cumulative = 7.50267e-24
ExecutionTime = 10808 s  ClockTime = 10849 s

Time = 0.000275

Courant Number mean: 0.00394045 max: 0.0950927
DILUPBiCGStab:  Solving for Ux, Initial residual = 0.0143678, Final residual = 1.45315e-05, No Iterations 5
DILUPBiCGStab:  Solving for Uy, Initial residual = 0.0238367, Final residual = 1.44842e-05, No Iterations 5
DILUPBiCGStab:  Solving for Uz, Initial residual = 0.0438234, Final residual = 4.62139e-05, No Iterations 5
linear solve U 7723.2 [ms]
piso setup 1129.3 [ms]
 correctNonOrthogonal 
 setRef 
 startSolve 
PETSc-cg:  Solving for p, Initial residual = 0.0258155, Final residual = 9.99678e-05, No Iterations 1312
linear solve p 321356 [ms]
piso step 321833 [ms]
 contErrors 
time step continuity errors : sum local = 1.82485e-10, global = 8.27762e-23, cumulative = 9.02789e-23
piso setup 1326.79 [ms]
 correctNonOrthogonal 
 setRef 
 startSolve 
PETSc-cg:  Solving for p, Initial residual = 0.0233874, Final residual = 9.96759e-05, No Iterations 1254
linear solve p 312197 [ms]
piso step 312707 [ms]
 contErrors 
time step continuity errors : sum local = 1.74792e-10, global = 1.06797e-23, cumulative = 1.00959e-22
ExecutionTime = 11452.8 s  ClockTime = 11496 s

Time = 0.0003

Courant Number mean: 0.00411347 max: 0.0953247
DILUPBiCGStab:  Solving for Ux, Initial residual = 0.0131727, Final residual = 1.2215e-05, No Iterations 5
DILUPBiCGStab:  Solving for Uy, Initial residual = 0.0215646, Final residual = 1.27283e-05, No Iterations 5
DILUPBiCGStab:  Solving for Uz, Initial residual = 0.0410088, Final residual = 4.17652e-05, No Iterations 5
linear solve U 8680.01 [ms]
piso setup 1221.92 [ms]
 correctNonOrthogonal 
 setRef 
 startSolve 
PETSc-cg:  Solving for p, Initial residual = 0.0206832, Final residual = 9.89389e-05, No Iterations 1435
linear solve p 345654 [ms]
piso step 346142 [ms]
 contErrors 
time step continuity errors : sum local = 1.90215e-10, global = -4.46212e-23, cumulative = 5.63373e-23
piso setup 1373 [ms]
 correctNonOrthogonal 
 setRef 
 startSolve 
PETSc-cg:  Solving for p, Initial residual = 0.0191765, Final residual = 9.9163e-05, No Iterations 1347
linear solve p 317630 [ms]
piso step 318129 [ms]
 contErrors 
time step continuity errors : sum local = 1.80318e-10, global = -1.27593e-23, cumulative = 4.35781e-23
ExecutionTime = 12128.2 s  ClockTime = 12174 s

Time = 0.000325

Courant Number mean: 0.00427673 max: 0.0955249
DILUPBiCGStab:  Solving for Ux, Initial residual = 0.0121539, Final residual = 1.04581e-05, No Iterations 5
DILUPBiCGStab:  Solving for Uy, Initial residual = 0.0197134, Final residual = 1.15664e-05, No Iterations 5
DILUPBiCGStab:  Solving for Uz, Initial residual = 0.0380464, Final residual = 4.19431e-05, No Iterations 5
linear solve U 8694.62 [ms]
piso setup 1235.6 [ms]
 correctNonOrthogonal 
 setRef 
 startSolve 
PETSc-cg:  Solving for p, Initial residual = 0.0181298, Final residual = 9.85918e-05, No Iterations 1369
linear solve p 311467 [ms]
piso step 311962 [ms]
 contErrors 
time step continuity errors : sum local = 1.84068e-10, global = -4.7139e-23, cumulative = -3.56088e-24
piso setup 1361.3 [ms]
 correctNonOrthogonal 
 setRef 
 startSolve 
PETSc-cg:  Solving for p, Initial residual = 0.0169187, Final residual = 9.9869e-05, No Iterations 1277
linear solve p 292094 [ms]
piso step 292607 [ms]
 contErrors 
time step continuity errors : sum local = 1.75925e-10, global = 6.76539e-23, cumulative = 6.4093e-23
ExecutionTime = 12744 s  ClockTime = 12792 s

Time = 0.00035

Courant Number mean: 0.00443142 max: 0.0957
DILUPBiCGStab:  Solving for Ux, Initial residual = 0.0112966, Final residual = 9.11862e-06, No Iterations 5
DILUPBiCGStab:  Solving for Uy, Initial residual = 0.0181184, Final residual = 1.04503e-05, No Iterations 5
DILUPBiCGStab:  Solving for Uz, Initial residual = 0.0356024, Final residual = 4.07194e-05, No Iterations 5
linear solve U 8905.3 [ms]
piso setup 1328.22 [ms]
 correctNonOrthogonal 
 setRef 
 startSolve 
PETSc-cg:  Solving for p, Initial residual = 0.0157713, Final residual = 9.94692e-05, No Iterations 2903
linear solve p 680366 [ms]
piso step 680869 [ms]
 contErrors 
time step continuity errors : sum local = 1.73686e-10, global = 1.80463e-22, cumulative = 2.44556e-22
piso setup 1366.54 [ms]
 correctNonOrthogonal 
 setRef 
 startSolve 
PETSc-cg:  Solving for p, Initial residual = 0.0148988, Final residual = 9.99648e-05, No Iterations 2900
linear solve p 674253 [ms]
piso step 674735 [ms]
 contErrors 
time step continuity errors : sum local = 1.74643e-10, global = 8.79614e-24, cumulative = 2.53352e-22
ExecutionTime = 14108.8 s  ClockTime = 14162 s

Time = 0.000375

Courant Number mean: 0.00457851 max: 0.095855
DILUPBiCGStab:  Solving for Ux, Initial residual = 0.0105439, Final residual = 8.06968e-06, No Iterations 5
DILUPBiCGStab:  Solving for Uy, Initial residual = 0.0167805, Final residual = 9.56972e-06, No Iterations 5
DILUPBiCGStab:  Solving for Uz, Initial residual = 0.0315628, Final residual = 2.37234e-05, No Iterations 5
linear solve U 6921.81 [ms]
piso setup 1385.73 [ms]
 correctNonOrthogonal 
 setRef 
 startSolve 
PETSc-cg:  Solving for p, Initial residual = 0.0142987, Final residual = 9.93342e-05, No Iterations 1183
linear solve p 273375 [ms]
piso step 273804 [ms]
 contErrors 
time step continuity errors : sum local = 1.78362e-10, global = 6.71264e-23, cumulative = 3.20479e-22
piso setup 1415.51 [ms]
 correctNonOrthogonal 
 setRef 
 startSolve 
PETSc-cg:  Solving for p, Initial residual = 0.0135468, Final residual = 9.94963e-05, No Iterations 1173
linear solve p 273499 [ms]
piso step 273979 [ms]
 contErrors 
time step continuity errors : sum local = 1.75841e-10, global = -4.16939e-23, cumulative = 2.78785e-22
ExecutionTime = 14666.2 s  ClockTime = 14721 s

Time = 0.0004

Courant Number mean: 0.004719 max: 0.0959932
DILUPBiCGStab:  Solving for Ux, Initial residual = 0.0098908, Final residual = 7.24297e-06, No Iterations 5
DILUPBiCGStab:  Solving for Uy, Initial residual = 0.0156132, Final residual = 8.79214e-06, No Iterations 5
DILUPBiCGStab:  Solving for Uz, Initial residual = 0.029978, Final residual = 1.84672e-05, No Iterations 5
linear solve U 7680.77 [ms]
piso setup 1301.95 [ms]
 correctNonOrthogonal 
 setRef 
 startSolve 
PETSc-cg:  Solving for p, Initial residual = 0.0128588, Final residual = 9.88593e-05, No Iterations 1190
linear solve p 277501 [ms]
piso step 277983 [ms]
 contErrors 
time step continuity errors : sum local = 1.78101e-10, global = -5.92242e-24, cumulative = 2.72862e-22
piso setup 1235.74 [ms]
 correctNonOrthogonal 
 setRef 
 startSolve 
PETSc-cg:  Solving for p, Initial residual = 0.0122567, Final residual = 9.75785e-05, No Iterations 1174
linear solve p 276506 [ms]
piso step 277059 [ms]
 contErrors 
time step continuity errors : sum local = 1.71518e-10, global = 5.57285e-23, cumulative = 3.28591e-22
ExecutionTime = 15231.4 s  ClockTime = 15288 s

Time = 0.000425

Courant Number mean: 0.00485338 max: 0.0961176
DILUPBiCGStab:  Solving for Ux, Initial residual = 0.00931075, Final residual = 6.58462e-06, No Iterations 5
DILUPBiCGStab:  Solving for Uy, Initial residual = 0.0146052, Final residual = 8.15472e-06, No Iterations 5
DILUPBiCGStab:  Solving for Uz, Initial residual = 0.028145, Final residual = 1.89973e-05, No Iterations 5
linear solve U 7764.81 [ms]
piso setup 1170.56 [ms]
 correctNonOrthogonal 
 setRef 
 startSolve 
PETSc-cg:  Solving for p, Initial residual = 0.0117049, Final residual = 9.95018e-05, No Iterations 1307
linear solve p 301930 [ms]
piso step 302503 [ms]
 contErrors 
time step continuity errors : sum local = 1.80461e-10, global = -4.28221e-23, cumulative = 2.85769e-22
piso setup 1067.48 [ms]
 correctNonOrthogonal 
 setRef 
 startSolve 
PETSc-cg:  Solving for p, Initial residual = 0.0111791, Final residual = 9.98843e-05, No Iterations 1273
linear solve p 291517 [ms]
piso step 292177 [ms]
 contErrors 
time step continuity errors : sum local = 1.7701e-10, global = -4.81949e-23, cumulative = 2.37574e-22
ExecutionTime = 15835.9 s  ClockTime = 15895 s

Time = 0.00045

Courant Number mean: 0.00498241 max: 0.0962302
DILUPBiCGStab:  Solving for Ux, Initial residual = 0.00880041, Final residual = 6.05457e-06, No Iterations 5
DILUPBiCGStab:  Solving for Uy, Initial residual = 0.0137064, Final residual = 7.5872e-06, No Iterations 5
DILUPBiCGStab:  Solving for Uz, Initial residual = 0.0268818, Final residual = 1.82881e-05, No Iterations 5
linear solve U 7744.67 [ms]
piso setup 1091.57 [ms]
 correctNonOrthogonal 
 setRef 
 startSolve 
PETSc-cg:  Solving for p, Initial residual = 0.0108854, Final residual = 9.99012e-05, No Iterations 1297
linear solve p 319084 [ms]
piso step 319698 [ms]
 contErrors 
time step continuity errors : sum local = 1.82064e-10, global = -2.07655e-23, cumulative = 2.16808e-22
piso setup 1236.7 [ms]
 correctNonOrthogonal 
 setRef 
 startSolve 
PETSc-cg:  Solving for p, Initial residual = 0.0104176, Final residual = 9.96281e-05, No Iterations 1218
linear solve p 303152 [ms]
piso step 303830 [ms]
 contErrors 
time step continuity errors : sum local = 1.75866e-10, global = -5.75965e-23, cumulative = 1.59212e-22
ExecutionTime = 16469.5 s  ClockTime = 16531 s

Time = 0.000475

Courant Number mean: 0.00510644 max: 0.096333
DILUPBiCGStab:  Solving for Ux, Initial residual = 0.0083376, Final residual = 5.62711e-06, No Iterations 5
DILUPBiCGStab:  Solving for Uy, Initial residual = 0.0129216, Final residual = 7.10727e-06, No Iterations 5
DILUPBiCGStab:  Solving for Uz, Initial residual = 0.0254263, Final residual = 1.95719e-05, No Iterations 5
linear solve U 10006.8 [ms]
piso setup 1209.4 [ms]
 correctNonOrthogonal 
 setRef 
 startSolve 
PETSc-cg:  Solving for p, Initial residual = 0.0101868, Final residual = 9.92878e-05, No Iterations 1312
linear solve p 354865 [ms]
piso step 355592 [ms]
 contErrors 
time step continuity errors : sum local = 1.82566e-10, global = -8.94654e-23, cumulative = 6.97465e-23
piso setup 1357.52 [ms]
 correctNonOrthogonal 
 setRef 
 startSolve 
PETSc-cg:  Solving for p, Initial residual = 0.00974851, Final residual = 9.9626e-05, No Iterations 1284
linear solve p 366373 [ms]
piso step 367161 [ms]
 contErrors 
time step continuity errors : sum local = 1.77278e-10, global = -6.2087e-23, cumulative = 7.65946e-24
ExecutionTime = 17204.4 s  ClockTime = 17269 s

Time = 0.0005

Courant Number mean: 0.00522603 max: 0.0964271
DILUPBiCGStab:  Solving for Ux, Initial residual = 0.00792807, Final residual = 5.29099e-06, No Iterations 5
DILUPBiCGStab:  Solving for Uy, Initial residual = 0.0122057, Final residual = 6.67707e-06, No Iterations 5
DILUPBiCGStab:  Solving for Uz, Initial residual = 0.0242589, Final residual = 1.97399e-05, No Iterations 5
linear solve U 13130.3 [ms]
piso setup 1249.12 [ms]
 correctNonOrthogonal 
 setRef 
 startSolve 
PETSc-cg:  Solving for p, Initial residual = 0.00957961, Final residual = 9.99275e-05, No Iterations 1292
linear solve p 267760 [ms]
piso step 268652 [ms]
 contErrors 
time step continuity errors : sum local = 1.84976e-10, global = 4.35782e-23, cumulative = 5.12377e-23
piso setup 1381.28 [ms]
 correctNonOrthogonal 
 setRef 
 startSolve 
PETSc-cg:  Solving for p, Initial residual = 0.00918671, Final residual = 9.97923e-05, No Iterations 1179
linear solve p 259085 [ms]
piso step 259817 [ms]
 contErrors 
time step continuity errors : sum local = 1.77145e-10, global = 8.35808e-24, cumulative = 5.95957e-23
ExecutionTime = 17749.1 s  ClockTime = 17816 s

End

Finalizing PETSc
Finalising parallel run
================================================================================
hash: 51ce8e6b7277a35d90da7cb39fc826a8
/*---------------------------------------------------------------------------*\
| =========                 |                                                 |
| \\      /  F ield         | OpenFOAM: The Open Source CFD Toolbox           |
|  \\    /   O peration     | Version:  v2106                                 |
|   \\  /    A nd           | Website:  www.openfoam.com                      |
|    \\/     M anipulation  |                                                 |
\*---------------------------------------------------------------------------*/
Build  : f815a12bba-20210902 OPENFOAM=2106
Arch   : "LSB;label=32;scalar=64"
Exec   : icoFoam -parallel
Date   : Oct 07 2022
Time   : 06:12:01
Host   : nla-gpu2.ianm.kit.edu
PID    : 1649460
I/O    : uncollated
Case   : /home/greole/data/code/ogl_labbook/lidDrivenCavity/single_node/mesh/400/matrix_solver/CG_NoPrecond_PETSC_HIP/mpiRank_of/32/base
nProcs : 32
Hosts  :
(
    (nla-gpu2.ianm.kit.edu 32)
)
Pstream initialized with:
    floatTransfer      : 0
    nProcsSimpleSum    : 0
    commsType          : nonBlocking
    polling iterations : 0
trapFpe: Floating point exception trapping enabled (FOAM_SIGFPE).
fileModificationChecking : Monitoring run-time modified files using timeStampMaster (fileModificationSkew 5, maxFileModificationPolls 20)
allowSystemOperations : Allowing user-supplied system call operations

// * * * * * * * * * * * * * * * * * * * * * * * * * * * * * * * * * * * * * //
Create time

Create mesh for time = 0


PISO: Operating solver in PISO mode

Reading transportProperties

Reading field p

Reading field U

Reading/calculating face flux field phi


Starting time loop

Time = 2.5e-05

Courant Number mean: 0 max: 0
DILUPBiCGStab:  Solving for Ux, Initial residual = 1, Final residual = 0.00138472, No Iterations 5
DILUPBiCGStab:  Solving for Uy:  solution singularity
DILUPBiCGStab:  Solving for Uz:  solution singularity
linear solve U 1928.93 [ms]
piso setup 666.13 [ms]
 correctNonOrthogonal 
 setRef 
 startSolve 
Initializing PETSc
PETSc-cg:  Solving for p, Initial residual = 1, Final residual = 9.92545e-05, No Iterations 3256
linear solve p 869739 [ms]
piso step 870022 [ms]
 contErrors 
time step continuity errors : sum local = 2.41817e-10, global = 1.86286e-22, cumulative = 1.86286e-22
piso setup 705.294 [ms]
 correctNonOrthogonal 
 setRef 
 startSolve 
PETSc-cg:  Solving for p, Initial residual = 0.71766, Final residual = 9.98313e-05, No Iterations 3237
linear solve p 868836 [ms]
piso step 869182 [ms]
 contErrors 
time step continuity errors : sum local = 3.27457e-10, global = -3.33134e-23, cumulative = 1.52972e-22
ExecutionTime = 1747.47 s  ClockTime = 1754 s

Time = 5e-05

Courant Number mean: 0.00116724 max: 0.075131
DILUPBiCGStab:  Solving for Ux, Initial residual = 0.159863, Final residual = 0.000886592, No Iterations 5
DILUPBiCGStab:  Solving for Uy, Initial residual = 0.348724, Final residual = 0.000948013, No Iterations 5
DILUPBiCGStab:  Solving for Uz, Initial residual = 0.994661, Final residual = 0.00355307, No Iterations 5
linear solve U 5472.21 [ms]
piso setup 741.753 [ms]
 correctNonOrthogonal 
 setRef 
 startSolve 
PETSc-cg:  Solving for p, Initial residual = 0.662877, Final residual = 9.88237e-05, No Iterations 3180
linear solve p 822509 [ms]
piso step 822833 [ms]
 contErrors 
time step continuity errors : sum local = 3.55275e-10, global = -4.66079e-23, cumulative = 1.06364e-22
piso setup 885.424 [ms]
 correctNonOrthogonal 
 setRef 
 startSolve 
PETSc-cg:  Solving for p, Initial residual = 0.588461, Final residual = 9.89098e-05, No Iterations 3174
linear solve p 819026 [ms]
piso step 819421 [ms]
 contErrors 
time step continuity errors : sum local = 3.61809e-10, global = 1.47363e-23, cumulative = 1.21101e-22
ExecutionTime = 3392.08 s  ClockTime = 3405 s

Time = 7.5e-05

Courant Number mean: 0.0017804 max: 0.0870161
DILUPBiCGStab:  Solving for Ux, Initial residual = 0.0661614, Final residual = 0.000264838, No Iterations 5
DILUPBiCGStab:  Solving for Uy, Initial residual = 0.138226, Final residual = 0.000268004, No Iterations 5
DILUPBiCGStab:  Solving for Uz, Initial residual = 0.438205, Final residual = 0.00189002, No Iterations 5
linear solve U 5916.51 [ms]
piso setup 848.026 [ms]
 correctNonOrthogonal 
 setRef 
 startSolve 
PETSc-cg:  Solving for p, Initial residual = 0.561916, Final residual = 9.93098e-05, No Iterations 3133
linear solve p 809166 [ms]
piso step 809555 [ms]
 contErrors 
time step continuity errors : sum local = 2.5426e-10, global = 3.43587e-23, cumulative = 1.55459e-22
piso setup 955.053 [ms]
 correctNonOrthogonal 
 setRef 
 startSolve 
PETSc-cg:  Solving for p, Initial residual = 0.504392, Final residual = 9.92464e-05, No Iterations 3126
linear solve p 805619 [ms]
piso step 806023 [ms]
 contErrors 
time step continuity errors : sum local = 2.48678e-10, global = 7.00801e-24, cumulative = 1.62467e-22
ExecutionTime = 5010.61 s  ClockTime = 5031 s

Time = 0.0001

Courant Number mean: 0.00220759 max: 0.090316
DILUPBiCGStab:  Solving for Ux, Initial residual = 0.0437032, Final residual = 0.000117706, No Iterations 5
DILUPBiCGStab:  Solving for Uy, Initial residual = 0.0872305, Final residual = 0.000107908, No Iterations 5
DILUPBiCGStab:  Solving for Uz, Initial residual = 0.134067, Final residual = 0.000387159, No Iterations 5
linear solve U 6681.23 [ms]
piso setup 1028.2 [ms]
 correctNonOrthogonal 
 setRef 
 startSolve 
PETSc-cg:  Solving for p, Initial residual = 0.326172, Final residual = 9.98197e-05, No Iterations 1487
linear solve p 385701 [ms]
piso step 386114 [ms]
 contErrors 
time step continuity errors : sum local = 2.31752e-10, global = 2.51825e-23, cumulative = 1.8765e-22
piso setup 1101.45 [ms]
 correctNonOrthogonal 
 setRef 
 startSolve 
PETSc-cg:  Solving for p, Initial residual = 0.271546, Final residual = 9.85519e-05, No Iterations 1467
linear solve p 381029 [ms]
piso step 381454 [ms]
 contErrors 
time step continuity errors : sum local = 2.20233e-10, global = -5.4643e-23, cumulative = 1.33007e-22
ExecutionTime = 5786.06 s  ClockTime = 5809 s

Time = 0.000125

Courant Number mean: 0.00255333 max: 0.091904
DILUPBiCGStab:  Solving for Ux, Initial residual = 0.0332648, Final residual = 7.29166e-05, No Iterations 5
DILUPBiCGStab:  Solving for Uy, Initial residual = 0.0630336, Final residual = 6.55547e-05, No Iterations 5
DILUPBiCGStab:  Solving for Uz, Initial residual = 0.0922799, Final residual = 0.000256897, No Iterations 5
linear solve U 6991.35 [ms]
piso setup 1123.75 [ms]
 correctNonOrthogonal 
 setRef 
[...]
piso setup 393.251 [ms]
 correctNonOrthogonal 
 setRef 
 startSolve 
PETSc-cg:  Solving for p, Initial residual = 0.440242, Final residual = 9.90046e-05, No Iterations 2727
linear solve p 130330 [ms]
piso step 130489 [ms]
 contErrors 
time step continuity errors : sum local = 2.95675e-10, global = 3.28345e-23, cumulative = 2.17758e-24
ExecutionTime = 812.02 s  ClockTime = 817 s

Time = 0.000114286

Courant Number mean: 0.00234497 max: 0.08961
DILUPBiCGStab:  Solving for Ux, Initial residual = 0.0450696, Final residual = 7.94969e-05, No Iterations 5
DILUPBiCGStab:  Solving for Uy, Initial residual = 0.0866133, Final residual = 6.6279e-05, No Iterations 5
DILUPBiCGStab:  Solving for Uz, Initial residual = 0.12284, Final residual = 0.000238762, No Iterations 5
linear solve U 2471.62 [ms]
piso setup 407.742 [ms]
 correctNonOrthogonal 
 setRef 
 startSolve 
PETSc-cg:  Solving for p, Initial residual = 0.268737, Final residual = 9.83908e-05, No Iterations 1299
linear solve p 62198.7 [ms]
piso step 62360.3 [ms]
 contErrors 
time step continuity errors : sum local = 2.81574e-10, global = -9.21494e-23, cumulative = -8.99718e-23
piso setup 394.871 [ms]
 correctNonOrthogonal 
 setRef 
 startSolve 
PETSc-cg:  Solving for p, Initial residual = 0.221619, Final residual = 9.9721e-05, No Iterations 1279
linear solve p 61259.3 [ms]
piso step 61413.6 [ms]
 contErrors 
time step continuity errors : sum local = 2.72464e-10, global = 2.1006e-23, cumulative = -6.89659e-23
ExecutionTime = 939.19 s  ClockTime = 945 s

Time = 0.000142857

Courant Number mean: 0.00271125 max: 0.0913194
DILUPBiCGStab:  Solving for Ux, Initial residual = 0.0341674, Final residual = 4.71949e-05, No Iterations 5
DILUPBiCGStab:  Solving for Uy, Initial residual = 0.0627492, Final residual = 4.10126e-05, No Iterations 5
DILUPBiCGStab:  Solving for Uz, Initial residual = 0.0928165, Final residual = 0.000155855, No Iterations 5
linear solve U 2471.44 [ms]
piso setup 406.854 [ms]
 correctNonOrthogonal 
 setRef 
 startSolve 
PETSc-cg:  Solving for p, Initial residual = 0.167701, Final residual = 9.91421e-05, No Iterations 1254
linear solve p 60053.2 [ms]
piso step 60207.4 [ms]
 contErrors 
time step continuity errors : sum local = 2.39899e-10, global = 1.06536e-22, cumulative = 3.75706e-23
piso setup 394.544 [ms]
 correctNonOrthogonal 
 setRef 
 startSolve 
PETSc-cg:  Solving for p, Initial residual = 0.139626, Final residual = 9.80036e-05, No Iterations 1251
linear solve p 59909.1 [ms]
piso step 60062.3 [ms]
 contErrors 
time step continuity errors : sum local = 2.35864e-10, global = -1.40575e-22, cumulative = -1.03004e-22
ExecutionTime = 1062.86 s  ClockTime = 1069 s

Time = 0.000171429

Courant Number mean: 0.00302348 max: 0.0923748
DILUPBiCGStab:  Solving for Ux, Initial residual = 0.0277268, Final residual = 3.41836e-05, No Iterations 5
DILUPBiCGStab:  Solving for Uy, Initial residual = 0.0492834, Final residual = 2.58575e-05, No Iterations 5
DILUPBiCGStab:  Solving for Uz, Initial residual = 0.0793515, Final residual = 9.74081e-05, No Iterations 5
linear solve U 2468.36 [ms]
piso setup 405.846 [ms]
 correctNonOrthogonal 
 setRef 
 startSolve 
PETSc-cg:  Solving for p, Initial residual = 0.0992264, Final residual = 9.99475e-05, No Iterations 1214
linear solve p 58130.8 [ms]
piso step 58289.4 [ms]
 contErrors 
time step continuity errors : sum local = 2.52803e-10, global = 5.69831e-23, cumulative = -4.60212e-23
piso setup 396.241 [ms]
 correctNonOrthogonal 
 setRef 
 startSolve 
PETSc-cg:  Solving for p, Initial residual = 0.0824722, Final residual = 9.87e-05, No Iterations 1193
linear solve p 57100.2 [ms]
piso step 57253.8 [ms]
 contErrors 
time step continuity errors : sum local = 2.3913e-10, global = -2.0985e-22, cumulative = -2.55871e-22
ExecutionTime = 1181.84 s  ClockTime = 1188 s

Time = 0.0002

Courant Number mean: 0.00329857 max: 0.0931098
DILUPBiCGStab:  Solving for Ux, Initial residual = 0.0234174, Final residual = 2.55178e-05, No Iterations 5
DILUPBiCGStab:  Solving for Uy, Initial residual = 0.0405877, Final residual = 2.30027e-05, No Iterations 5
DILUPBiCGStab:  Solving for Uz, Initial residual = 0.0675292, Final residual = 6.44317e-05, No Iterations 5
linear solve U 2465.44 [ms]
piso setup 408.192 [ms]
 correctNonOrthogonal 
 setRef 
 startSolve 
PETSc-cg:  Solving for p, Initial residual = 0.0661755, Final residual = 9.95036e-05, No Iterations 1201
linear solve p 57491.2 [ms]
piso step 57647.5 [ms]
 contErrors 
time step continuity errors : sum local = 2.32576e-10, global = 1.41559e-23, cumulative = -2.41715e-22
piso setup 392.725 [ms]
 correctNonOrthogonal 
 setRef 
 startSolve 
PETSc-cg:  Solving for p, Initial residual = 0.0560997, Final residual = 9.9616e-05, No Iterations 1195
linear solve p 57197 [ms]
piso step 57349 [ms]
 contErrors 
time step continuity errors : sum local = 2.29688e-10, global = -1.74941e-23, cumulative = -2.59209e-22
ExecutionTime = 1300.27 s  ClockTime = 1308 s

Time = 0.000228571

Courant Number mean: 0.00354609 max: 0.09366
DILUPBiCGStab:  Solving for Ux, Initial residual = 0.0203213, Final residual = 1.97442e-05, No Iterations 5
DILUPBiCGStab:  Solving for Uy, Initial residual = 0.0344593, Final residual = 1.76828e-05, No Iterations 5
DILUPBiCGStab:  Solving for Uz, Initial residual = 0.0600056, Final residual = 4.75175e-05, No Iterations 5
linear solve U 2465.94 [ms]
piso setup 407.438 [ms]
 correctNonOrthogonal 
 setRef 
 startSolve 
PETSc-cg:  Solving for p, Initial residual = 0.0445177, Final residual = 9.95657e-05, No Iterations 1211
linear solve p 57970.9 [ms]
piso step 58125.6 [ms]
 contErrors 
time step continuity errors : sum local = 2.44801e-10, global = 1.70795e-22, cumulative = -8.84142e-23
piso setup 395.784 [ms]
 correctNonOrthogonal 
 setRef 
 startSolve 
PETSc-cg:  Solving for p, Initial residual = 0.0386558, Final residual = 9.97998e-05, No Iterations 1138
linear solve p 54490.5 [ms]
piso step 54646.6 [ms]
 contErrors 
time step continuity errors : sum local = 2.35098e-10, global = 1.60207e-23, cumulative = -7.23935e-23
ExecutionTime = 1416.48 s  ClockTime = 1424 s

Time = 0.000257143

Courant Number mean: 0.00377206 max: 0.0940917
DILUPBiCGStab:  Solving for Ux, Initial residual = 0.0179637, Final residual = 1.56115e-05, No Iterations 5
DILUPBiCGStab:  Solving for Uy, Initial residual = 0.0299626, Final residual = 1.55969e-05, No Iterations 5
DILUPBiCGStab:  Solving for Uz, Initial residual = 0.0532964, Final residual = 3.82613e-05, No Iterations 5
linear solve U 2475.56 [ms]
piso setup 405.78 [ms]
 correctNonOrthogonal 
 setRef 
 startSolve 
PETSc-cg:  Solving for p, Initial residual = 0.0332142, Final residual = 9.85169e-05, No Iterations 1200
linear solve p 57464 [ms]
piso step 57616.1 [ms]
 contErrors 
time step continuity errors : sum local = 2.29063e-10, global = -5.93546e-23, cumulative = -1.31748e-22
piso setup 395.306 [ms]
 correctNonOrthogonal 
 setRef 
 startSolve 
PETSc-cg:  Solving for p, Initial residual = 0.0295008, Final residual = 9.95496e-05, No Iterations 1189
linear solve p 56916.2 [ms]
piso step 57067.8 [ms]
 contErrors 
time step continuity errors : sum local = 2.26652e-10, global = 4.68354e-24, cumulative = -1.27065e-22
ExecutionTime = 1534.61 s  ClockTime = 1543 s

Time = 0.000285714

Courant Number mean: 0.00398056 max: 0.0944422
DILUPBiCGStab:  Solving for Ux, Initial residual = 0.0161203, Final residual = 1.26701e-05, No Iterations 5
DILUPBiCGStab:  Solving for Uy, Initial residual = 0.0264645, Final residual = 1.2942e-05, No Iterations 5
DILUPBiCGStab:  Solving for Uz, Initial residual = 0.0483905, Final residual = 3.06322e-05, No Iterations 5
linear solve U 2475.19 [ms]
piso setup 404.278 [ms]
 correctNonOrthogonal 
 setRef 
 startSolve 
PETSc-cg:  Solving for p, Initial residual = 0.0248494, Final residual = 9.95481e-05, No Iterations 1207
linear solve p 57784.4 [ms]
piso step 57936.8 [ms]
 contErrors 
time step continuity errors : sum local = 2.44212e-10, global = 5.99351e-23, cumulative = -6.71294e-23
piso setup 395.074 [ms]
 correctNonOrthogonal 
 setRef 
 startSolve 
PETSc-cg:  Solving for p, Initial residual = 0.0226394, Final residual = 9.95573e-05, No Iterations 1111
linear solve p 53196.6 [ms]
piso step 53346.8 [ms]
 contErrors 
time step continuity errors : sum local = 2.33775e-10, global = -7.86154e-23, cumulative = -1.45745e-22
ExecutionTime = 1649.35 s  ClockTime = 1658 s

Time = 0.000314286

Courant Number mean: 0.00417466 max: 0.0947341
DILUPBiCGStab:  Solving for Ux, Initial residual = 0.0146192, Final residual = 1.04917e-05, No Iterations 5
DILUPBiCGStab:  Solving for Uy, Initial residual = 0.0237188, Final residual = 1.14904e-05, No Iterations 5
DILUPBiCGStab:  Solving for Uz, Initial residual = 0.043855, Final residual = 2.7757e-05, No Iterations 5
linear solve U 2466.6 [ms]
piso setup 406.109 [ms]
 correctNonOrthogonal 
 setRef 
 startSolve 
PETSc-cg:  Solving for p, Initial residual = 0.0210317, Final residual = 9.95249e-05, No Iterations 1184
linear solve p 56666 [ms]
piso step 56819.9 [ms]
 contErrors 
time step continuity errors : sum local = 2.32159e-10, global = 1.11782e-22, cumulative = -3.39632e-23
piso setup 393.734 [ms]
 correctNonOrthogonal 
 setRef 
 startSolve 
PETSc-cg:  Solving for p, Initial residual = 0.0193256, Final residual = 9.93834e-05, No Iterations 1150
linear solve p 55053.2 [ms]
piso step 55204.9 [ms]
 contErrors 
time step continuity errors : sum local = 2.25635e-10, global = -4.92318e-23, cumulative = -8.3195e-23
ExecutionTime = 1764.82 s  ClockTime = 1775 s

Time = 0.000342857

Courant Number mean: 0.00435675 max: 0.094982
DILUPBiCGStab:  Solving for Ux, Initial residual = 0.0133888, Final residual = 8.88464e-06, No Iterations 5
DILUPBiCGStab:  Solving for Uy, Initial residual = 0.0214572, Final residual = 1.00145e-05, No Iterations 5
DILUPBiCGStab:  Solving for Uz, Initial residual = 0.0404786, Final residual = 2.37803e-05, No Iterations 5
linear solve U 2468.53 [ms]
piso setup 405.088 [ms]
 correctNonOrthogonal 
 setRef 
 startSolve 
PETSc-cg:  Solving for p, Initial residual = 0.0174359, Final residual = 9.98483e-05, No Iterations 1204
linear solve p 57636.2 [ms]
piso step 57790 [ms]
 contErrors 
time step continuity errors : sum local = 2.46e-10, global = 1.10034e-22, cumulative = 2.68392e-23
piso setup 393.592 [ms]
 correctNonOrthogonal 
 setRef 
 startSolve 
PETSc-cg:  Solving for p, Initial residual = 0.0162708, Final residual = 9.99875e-05, No Iterations 1123
linear solve p 53791 [ms]
piso step 53940.9 [ms]
 contErrors 
time step continuity errors : sum local = 2.35269e-10, global = 1.9091e-22, cumulative = 2.17749e-22
ExecutionTime = 1880.01 s  ClockTime = 1890 s

Time = 0.000371429

Courant Number mean: 0.00452824 max: 0.095196
DILUPBiCGStab:  Solving for Ux, Initial residual = 0.0123431, Final residual = 7.66666e-06, No Iterations 5
DILUPBiCGStab:  Solving for Uy, Initial residual = 0.0196083, Final residual = 8.98999e-06, No Iterations 5
DILUPBiCGStab:  Solving for Uz, Initial residual = 0.0372686, Final residual = 2.28268e-05, No Iterations 5
linear solve U 2466.92 [ms]
piso setup 406.8 [ms]
 correctNonOrthogonal 
 setRef 
 startSolve 
PETSc-cg:  Solving for p, Initial residual = 0.0154063, Final residual = 9.94846e-05, No Iterations 1163
linear solve p 55675.3 [ms]
piso step 55826.7 [ms]
 contErrors 
time step continuity errors : sum local = 2.33564e-10, global = 1.71192e-22, cumulative = 3.88941e-22
piso setup 391.523 [ms]
 correctNonOrthogonal 
 setRef 
 startSolve 
PETSc-cg:  Solving for p, Initial residual = 0.0144322, Final residual = 9.97472e-05, No Iterations 1109
linear solve p 53092.8 [ms]
piso step 53243.2 [ms]
 contErrors 
time step continuity errors : sum local = 2.26368e-10, global = 1.23554e-22, cumulative = 5.12495e-22
ExecutionTime = 1992.56 s  ClockTime = 2003 s

Time = 0.0004

Courant Number mean: 0.00469069 max: 0.0953832
DILUPBiCGStab:  Solving for Ux, Initial residual = 0.0114606, Final residual = 6.75022e-06, No Iterations 5
DILUPBiCGStab:  Solving for Uy, Initial residual = 0.0180244, Final residual = 8.06366e-06, No Iterations 5
DILUPBiCGStab:  Solving for Uz, Initial residual = 0.0347752, Final residual = 2.05972e-05, No Iterations 5
linear solve U 2475.75 [ms]
piso setup 404.083 [ms]
 correctNonOrthogonal 
 setRef 
 startSolve 
PETSc-cg:  Solving for p, Initial residual = 0.0136574, Final residual = 9.76486e-05, No Iterations 1202
linear solve p 57534.8 [ms]
piso step 57686.2 [ms]
 contErrors 
time step continuity errors : sum local = 2.42586e-10, global = 1.11853e-22, cumulative = 6.24348e-22
piso setup 393.832 [ms]
 correctNonOrthogonal 
 setRef 
 startSolve 
PETSc-cg:  Solving for p, Initial residual = 0.0128746, Final residual = 9.92101e-05, No Iterations 1135
linear solve p 54343.9 [ms]
piso step 54494 [ms]
 contErrors 
time step continuity errors : sum local = 2.34264e-10, global = -6.92779e-23, cumulative = 5.5507e-22
ExecutionTime = 2108.2 s  ClockTime = 2120 s

Time = 0.000428571

Courant Number mean: 0.0048451 max: 0.0955487
DILUPBiCGStab:  Solving for Ux, Initial residual = 0.0106873, Final residual = 6.09728e-06, No Iterations 5
DILUPBiCGStab:  Solving for Uy, Initial residual = 0.0166968, Final residual = 7.33855e-06, No Iterations 5
DILUPBiCGStab:  Solving for Uz, Initial residual = 0.0323815, Final residual = 2.02295e-05, No Iterations 5
linear solve U 2467.92 [ms]
piso setup 404.689 [ms]
 correctNonOrthogonal 
 setRef 
 startSolve 
PETSc-cg:  Solving for p, Initial residual = 0.0123695, Final residual = 9.87494e-05, No Iterations 1137
linear solve p 54440.6 [ms]
piso step 54590.6 [ms]
 contErrors 
time step continuity errors : sum local = 2.33607e-10, global = -1.15019e-22, cumulative = 4.4005e-22
piso setup 391.752 [ms]
 correctNonOrthogonal 
 setRef 
 startSolve 
PETSc-cg:  Solving for p, Initial residual = 0.0117158, Final residual = 9.84753e-05, No Iterations 1041
linear solve p 49861.5 [ms]
piso step 50012.3 [ms]
 contErrors 
time step continuity errors : sum local = 2.23459e-10, global = 3.61709e-23, cumulative = 4.76221e-22
ExecutionTime = 2216.29 s  ClockTime = 2228 s

Time = 0.000457143

Courant Number mean: 0.00499237 max: 0.0956964
DILUPBiCGStab:  Solving for Ux, Initial residual = 0.0100222, Final residual = 5.56556e-06, No Iterations 5
DILUPBiCGStab:  Solving for Uy, Initial residual = 0.0155241, Final residual = 6.70607e-06, No Iterations 5
DILUPBiCGStab:  Solving for Uz, Initial residual = 0.0305143, Final residual = 1.89681e-05, No Iterations 5
linear solve U 2466.58 [ms]
piso setup 404.354 [ms]
 correctNonOrthogonal 
 setRef 
 startSolve 
PETSc-cg:  Solving for p, Initial residual = 0.0112625, Final residual = 9.84211e-05, No Iterations 1201
linear solve p 57481.6 [ms]
piso step 57630 [ms]
 contErrors 
time step continuity errors : sum local = 2.4609e-10, global = 1.55748e-22, cumulative = 6.31969e-22
piso setup 393.338 [ms]
 correctNonOrthogonal 
 setRef 
 startSolve 
PETSc-cg:  Solving for p, Initial residual = 0.0106628, Final residual = 9.94181e-05, No Iterations 1136
linear solve p 54388.8 [ms]
piso step 54538.6 [ms]
 contErrors 
time step continuity errors : sum local = 2.35531e-10, global = -6.6012e-23, cumulative = 5.65957e-22
ExecutionTime = 2331.93 s  ClockTime = 2345 s

Time = 0.000485714

Courant Number mean: 0.00513332 max: 0.0958293
DILUPBiCGStab:  Solving for Ux, Initial residual = 0.00942513, Final residual = 5.11908e-06, No Iterations 5
DILUPBiCGStab:  Solving for Uy, Initial residual = 0.0145268, Final residual = 6.18631e-06, No Iterations 5
DILUPBiCGStab:  Solving for Uz, Initial residual = 0.0286299, Final residual = 1.87126e-05, No Iterations 5
linear solve U 2468.46 [ms]
piso setup 406.039 [ms]
 correctNonOrthogonal 
 setRef 
 startSolve 
PETSc-cg:  Solving for p, Initial residual = 0.0104434, Final residual = 9.9313e-05, No Iterations 1129
linear solve p 54053.6 [ms]
piso step 54204.7 [ms]
 contErrors 
time step continuity errors : sum local = 2.36686e-10, global = 6.79588e-23, cumulative = 6.33916e-22
piso setup 392.457 [ms]
 correctNonOrthogonal 
 setRef 
 startSolve 
PETSc-cg:  Solving for p, Initial residual = 0.00990757, Final residual = 9.97766e-05, No Iterations 1026
linear solve p 49143.4 [ms]
piso step 49290.2 [ms]
 contErrors 
time step continuity errors : sum local = 2.26304e-10, global = 1.37635e-23, cumulative = 6.47679e-22
ExecutionTime = 2438.91 s  ClockTime = 2452 s

Time = 0.000514286

Courant Number mean: 0.00526844 max: 0.0959496
DILUPBiCGStab:  Solving for Ux, Initial residual = 0.00890566, Final residual = 4.74759e-06, No Iterations 5
DILUPBiCGStab:  Solving for Uy, Initial residual = 0.0136227, Final residual = 5.73062e-06, No Iterations 5
DILUPBiCGStab:  Solving for Uz, Initial residual = 0.0271641, Final residual = 1.79051e-05, No Iterations 5
linear solve U 2473.64 [ms]
piso setup 405.054 [ms]
 correctNonOrthogonal 
 setRef 
 startSolve 
PETSc-cg:  Solving for p, Initial residual = 0.00970713, Final residual = 9.99461e-05, No Iterations 1204
linear solve p 57633.8 [ms]
piso step 57787.7 [ms]
 contErrors 
time step continuity errors : sum local = 2.51441e-10, global = 1.51102e-22, cumulative = 7.98782e-22
piso setup 392.355 [ms]
 correctNonOrthogonal 
 setRef 
 startSolve 
PETSc-cg:  Solving for p, Initial residual = 0.00920032, Final residual = 9.97798e-05, No Iterations 1128
linear solve p 53999.4 [ms]
piso step 54148.9 [ms]
 contErrors 
time step continuity errors : sum local = 2.37173e-10, global = 1.20643e-23, cumulative = 8.10846e-22
ExecutionTime = 2554.3 s  ClockTime = 2568 s

Time = 0.000542857

Courant Number mean: 0.00539838 max: 0.0960593
DILUPBiCGStab:  Solving for Ux, Initial residual = 0.00842998, Final residual = 4.42722e-06, No Iterations 5
DILUPBiCGStab:  Solving for Uy, Initial residual = 0.0128471, Final residual = 5.35021e-06, No Iterations 5
DILUPBiCGStab:  Solving for Uz, Initial residual = 0.0256414, Final residual = 1.76566e-05, No Iterations 5
linear solve U 2476.22 [ms]
piso setup 405.228 [ms]
 correctNonOrthogonal 
 setRef 
 startSolve 
PETSc-cg:  Solving for p, Initial residual = 0.00903837, Final residual = 9.92367e-05, No Iterations 1124
linear solve p 53824.8 [ms]
piso step 53974.8 [ms]
 contErrors 
time step continuity errors : sum local = 2.38386e-10, global = 8.42144e-23, cumulative = 8.9506e-22
piso setup 393.327 [ms]
 correctNonOrthogonal 
 setRef 
 startSolve 
PETSc-cg:  Solving for p, Initial residual = 0.00858994, Final residual = 9.97194e-05, No Iterations 1020
linear solve p 48854.8 [ms]
piso step 49005.8 [ms]
 contErrors 
time step continuity errors : sum local = 2.26146e-10, global = -4.63622e-23, cumulative = 8.48698e-22
ExecutionTime = 2660.78 s  ClockTime = 2675 s

Time = 0.000571429

Courant Number mean: 0.00552352 max: 0.0961599
DILUPBiCGStab:  Solving for Ux, Initial residual = 0.0080129, Final residual = 4.15279e-06, No Iterations 5
DILUPBiCGStab:  Solving for Uy, Initial residual = 0.0121282, Final residual = 5.01017e-06, No Iterations 5
DILUPBiCGStab:  Solving for Uz, Initial residual = 0.0244797, Final residual = 1.70921e-05, No Iterations 5
linear solve U 2464.8 [ms]
piso setup 404.666 [ms]
 correctNonOrthogonal 
 setRef 
 startSolve 
PETSc-cg:  Solving for p, Initial residual = 0.00851633, Final residual = 9.97646e-05, No Iterations 2508
linear solve p 119829 [ms]
piso step 119978 [ms]
 contErrors 
time step continuity errors : sum local = 2.26219e-10, global = 3.27762e-23, cumulative = 8.81474e-22
piso setup 393.032 [ms]
 correctNonOrthogonal 
 setRef 
 startSolve 
PETSc-cg:  Solving for p, Initial residual = 0.00809108, Final residual = 9.9399e-05, No Iterations 1192
linear solve p 57060.7 [ms]
piso step 57211.1 [ms]
 contErrors 
time step continuity errors : sum local = 2.47587e-10, global = -2.45392e-23, cumulative = 8.56935e-22
ExecutionTime = 2841.09 s  ClockTime = 2856 s

End

Finalizing PETSc
Finalising parallel run
================================================================================
