hash: 49464f709a50ce11e1c66204c0a839e1
/*---------------------------------------------------------------------------*\
| =========                 |                                                 |
| \\      /  F ield         | OpenFOAM: The Open Source CFD Toolbox           |
|  \\    /   O peration     | Version:  v2106                                 |
|   \\  /    A nd           | Website:  www.openfoam.com                      |
|    \\/     M anipulation  |                                                 |
\*---------------------------------------------------------------------------*/
Build  : f815a12bba-20210902 OPENFOAM=2106
Arch   : "LSB;label=32;scalar=64"
Exec   : icoFoam -parallel
Date   : Oct 07 2022
Time   : 12:02:27
Host   : nla-gpu2.ianm.kit.edu
PID    : 1652809
I/O    : uncollated
Case   : /home/greole/data/code/ogl_labbook/lidDrivenCavity/single_node/mesh/100/matrix_solver/CG_NoPrecond_PETSC_Default/mpiRank_of/32/base
nProcs : 32
Hosts  :
(
    (nla-gpu2.ianm.kit.edu 32)
)
Pstream initialized with:
    floatTransfer      : 0
    nProcsSimpleSum    : 0
    commsType          : nonBlocking
    polling iterations : 0
trapFpe: Floating point exception trapping enabled (FOAM_SIGFPE).
fileModificationChecking : Monitoring run-time modified files using timeStampMaster (fileModificationSkew 5, maxFileModificationPolls 20)
allowSystemOperations : Allowing user-supplied system call operations

// * * * * * * * * * * * * * * * * * * * * * * * * * * * * * * * * * * * * * //
Create time

Create mesh for time = 0


PISO: Operating solver in PISO mode

Reading transportProperties

Reading field p

Reading field U

Reading/calculating face flux field phi


Starting time loop

Time = 0.0001

Courant Number mean: 0 max: 0
DILUPBiCGStab:  Solving for Ux, Initial residual = 1, Final residual = 5.11961e-06, No Iterations 5
DILUPBiCGStab:  Solving for Uy:  solution singularity
DILUPBiCGStab:  Solving for Uz:  solution singularity
linear solve U 49.61 [ms]
piso setup 56.769 [ms]
 correctNonOrthogonal 
 setRef 
 startSolve 
Initializing PETSc
PETSc-cg:  Solving for p, Initial residual = 1, Final residual = 9.68152e-05, No Iterations 794
linear solve p 549.797 [ms]
piso step 571.341 [ms]
 contErrors 
time step continuity errors : sum local = 1.71048e-09, global = -1.19589e-21, cumulative = -1.19589e-21
piso setup 41.831 [ms]
 correctNonOrthogonal 
 setRef 
 startSolve 
PETSc-cg:  Solving for p, Initial residual = 0.559986, Final residual = 9.75196e-05, No Iterations 777
linear solve p 376.107 [ms]
piso step 400.613 [ms]
 contErrors 
time step continuity errors : sum local = 2.66754e-09, global = -3.80438e-22, cumulative = -1.57633e-21
ExecutionTime = 1.56 s  ClockTime = 1 s

Time = 0.0002

Courant Number mean: 0.00201332 max: 0.0540371
DILUPBiCGStab:  Solving for Ux, Initial residual = 0.216464, Final residual = 4.03946e-06, No Iterations 5
DILUPBiCGStab:  Solving for Uy, Initial residual = 0.309938, Final residual = 3.41666e-06, No Iterations 5
DILUPBiCGStab:  Solving for Uz, Initial residual = 0.98131, Final residual = 9.74794e-06, No Iterations 5
linear solve U 30.789 [ms]
piso setup 23.993 [ms]
 correctNonOrthogonal 
 setRef 
 startSolve 
PETSc-cg:  Solving for p, Initial residual = 0.381697, Final residual = 9.12476e-05, No Iterations 769
linear solve p 426.779 [ms]
piso step 439.816 [ms]
 contErrors 
time step continuity errors : sum local = 2.38645e-09, global = -4.72162e-22, cumulative = -2.04849e-21
piso setup 12.162 [ms]
 correctNonOrthogonal 
 setRef 
 startSolve 
PETSc-cg:  Solving for p, Initial residual = 0.284805, Final residual = 9.60948e-05, No Iterations 764
linear solve p 374.576 [ms]
piso step 384.631 [ms]
 contErrors 
time step continuity errors : sum local = 2.63323e-09, global = -6.22468e-22, cumulative = -2.67096e-21
ExecutionTime = 2.49 s  ClockTime = 2 s

Time = 0.0003

Courant Number mean: 0.00317979 max: 0.0721774
DILUPBiCGStab:  Solving for Ux, Initial residual = 0.0963257, Final residual = 1.67916e-06, No Iterations 5
DILUPBiCGStab:  Solving for Uy, Initial residual = 0.140691, Final residual = 1.46743e-06, No Iterations 5
DILUPBiCGStab:  Solving for Uz, Initial residual = 0.205664, Final residual = 2.19577e-06, No Iterations 5
linear solve U 32.348 [ms]
piso setup 14.08 [ms]
 correctNonOrthogonal 
 setRef 
 startSolve 
PETSc-cg:  Solving for p, Initial residual = 0.128588, Final residual = 9.75761e-05, No Iterations 743
linear solve p 358.807 [ms]
piso step 367.301 [ms]
 contErrors 
time step continuity errors : sum local = 2.29922e-09, global = -1.5347e-21, cumulative = -4.20566e-21
piso setup 11.118 [ms]
 correctNonOrthogonal 
 setRef 
 startSolve 
PETSc-cg:  Solving for p, Initial residual = 0.0996221, Final residual = 9.97911e-05, No Iterations 736
linear solve p 385.695 [ms]
piso step 396.114 [ms]
 contErrors 
time step continuity errors : sum local = 2.38198e-09, global = -1.049e-21, cumulative = -5.25466e-21
ExecutionTime = 3.34 s  ClockTime = 3 s

Time = 0.0004

Courant Number mean: 0.00397984 max: 0.0793325
DILUPBiCGStab:  Solving for Ux, Initial residual = 0.0593651, Final residual = 8.48476e-07, No Iterations 5
DILUPBiCGStab:  Solving for Uy, Initial residual = 0.0868086, Final residual = 7.57959e-07, No Iterations 5
DILUPBiCGStab:  Solving for Uz, Initial residual = 0.127078, Final residual = 9.71776e-07, No Iterations 5
linear solve U 49.984 [ms]
piso setup 16.034 [ms]
 correctNonOrthogonal 
 setRef 
 startSolve 
PETSc-cg:  Solving for p, Initial residual = 0.064299, Final residual = 9.69277e-05, No Iterations 729
linear solve p 354.413 [ms]
piso step 363.155 [ms]
 contErrors 
time step continuity errors : sum local = 2.24724e-09, global = -1.14995e-21, cumulative = -6.40461e-21
piso setup 7.6 [ms]
 correctNonOrthogonal 
 setRef 
 startSolve 
PETSc-cg:  Solving for p, Initial residual = 0.0497323, Final residual = 9.98914e-05, No Iterations 719
linear solve p 368.634 [ms]
piso step 375.293 [ms]
 contErrors 
time step continuity errors : sum local = 2.35191e-09, global = -4.16201e-22, cumulative = -6.82081e-21
ExecutionTime = 4.17 s  ClockTime = 4 s

Time = 0.0005

Courant Number mean: 0.00460129 max: 0.082885
DILUPBiCGStab:  Solving for Ux, Initial residual = 0.0428599, Final residual = 5.81762e-07, No Iterations 5
DILUPBiCGStab:  Solving for Uy, Initial residual = 0.0618649, Final residual = 4.25782e-07, No Iterations 5
DILUPBiCGStab:  Solving for Uz, Initial residual = 0.0971403, Final residual = 6.06993e-07, No Iterations 5
linear solve U 33.436 [ms]
piso setup 12.741 [ms]
 correctNonOrthogonal 
 setRef 
 startSolve 
PETSc-cg:  Solving for p, Initial residual = 0.0389517, Final residual = 9.91551e-05, No Iterations 402
linear solve p 196.123 [ms]
piso step 202.854 [ms]
 contErrors 
time step continuity errors : sum local = 2.66932e-09, global = -7.65266e-22, cumulative = -7.58608e-21
piso setup 10.17 [ms]
 correctNonOrthogonal 
 setRef 
 startSolve 
PETSc-cg:  Solving for p, Initial residual = 0.0305798, Final residual = 9.88145e-05, No Iterations 339
linear solve p 166.945 [ms]
piso step 172.611 [ms]
 contErrors 
time step continuity errors : sum local = 2.46989e-09, global = -6.57092e-22, cumulative = -8.24317e-21
ExecutionTime = 4.63 s  ClockTime = 5 s

Time = 0.0006

Courant Number mean: 0.00511864 max: 0.0850107
DILUPBiCGStab:  Solving for Ux, Initial residual = 0.0336701, Final residual = 4.249e-07, No Iterations 5
DILUPBiCGStab:  Solving for Uy, Initial residual = 0.0480492, Final residual = 2.6857e-07, No Iterations 5
DILUPBiCGStab:  Solving for Uz, Initial residual = 0.0802598, Final residual = 4.76986e-07, No Iterations 5
linear solve U 33.485 [ms]
piso setup 10.882 [ms]
 correctNonOrthogonal 
 setRef 
 startSolve 
PETSc-cg:  Solving for p, Initial residual = 0.0269297, Final residual = 9.76549e-05, No Iterations 341
linear solve p 177.172 [ms]
piso step 184.795 [ms]
 contErrors 
time step continuity errors : sum local = 2.55063e-09, global = -1.44e-21, cumulative = -9.68317e-21
piso setup 5.707 [ms]
 correctNonOrthogonal 
 setRef 
 startSolve 
PETSc-cg:  Solving for p, Initial residual = 0.0213698, Final residual = 9.5663e-05, No Iterations 312
linear solve p 184.388 [ms]
piso step 190.439 [ms]
 contErrors 
time step continuity errors : sum local = 2.42773e-09, global = -1.9269e-21, cumulative = -1.16101e-20
ExecutionTime = 5.07 s  ClockTime = 5 s

Time = 0.0007

Courant Number mean: 0.00556497 max: 0.0864549
DILUPBiCGStab:  Solving for Ux, Initial residual = 0.0277666, Final residual = 3.23588e-07, No Iterations 5
DILUPBiCGStab:  Solving for Uy, Initial residual = 0.0392374, Final residual = 1.94328e-07, No Iterations 5
DILUPBiCGStab:  Solving for Uz, Initial residual = 0.0677421, Final residual = 3.85034e-07, No Iterations 5
linear solve U 33.434 [ms]
piso setup 9.569 [ms]
 correctNonOrthogonal 
 setRef 
 startSolve 
PETSc-cg:  Solving for p, Initial residual = 0.0207675, Final residual = 9.67386e-05, No Iterations 301
linear solve p 148.893 [ms]
piso step 154.988 [ms]
 contErrors 
time step continuity errors : sum local = 2.58483e-09, global = -1.3032e-21, cumulative = -1.29133e-20
piso setup 7.361 [ms]
 correctNonOrthogonal 
 setRef 
 startSolve 
PETSc-cg:  Solving for p, Initial residual = 0.0165044, Final residual = 9.73978e-05, No Iterations 293
linear solve p 146.99 [ms]
piso step 151.851 [ms]
 contErrors 
time step continuity errors : sum local = 2.51948e-09, global = -1.46837e-21, cumulative = -1.43816e-20
ExecutionTime = 5.45 s  ClockTime = 5 s

Time = 0.0008

Courant Number mean: 0.0059623 max: 0.0875193
DILUPBiCGStab:  Solving for Ux, Initial residual = 0.0236243, Final residual = 2.61674e-07, No Iterations 5
DILUPBiCGStab:  Solving for Uy, Initial residual = 0.0331355, Final residual = 1.5442e-07, No Iterations 5
DILUPBiCGStab:  Solving for Uz, Initial residual = 0.0588704, Final residual = 3.08943e-07, No Iterations 5
linear solve U 35.422 [ms]
piso setup 8.198 [ms]
 correctNonOrthogonal 
 setRef 
 startSolve 
PETSc-cg:  Solving for p, Initial residual = 0.0166958, Final residual = 9.78818e-05, No Iterations 294
linear solve p 147.936 [ms]
piso step 152.043 [ms]
 contErrors 
time step continuity errors : sum local = 2.62321e-09, global = -1.83157e-21, cumulative = -1.62132e-20
piso setup 6.983 [ms]
 correctNonOrthogonal 
 setRef 
 startSolve 
PETSc-cg:  Solving for p, Initial residual = 0.0133993, Final residual = 9.87332e-05, No Iterations 287
linear solve p 148.885 [ms]
piso step 154.626 [ms]
 contErrors 
time step continuity errors : sum local = 2.58578e-09, global = -2.32742e-21, cumulative = -1.85406e-20
ExecutionTime = 5.84 s  ClockTime = 6 s

Time = 0.0009

Courant Number mean: 0.00631847 max: 0.0883466
DILUPBiCGStab:  Solving for Ux, Initial residual = 0.0205606, Final residual = 2.16779e-07, No Iterations 5
DILUPBiCGStab:  Solving for Uy, Initial residual = 0.0286497, Final residual = 1.29183e-07, No Iterations 5
DILUPBiCGStab:  Solving for Uz, Initial residual = 0.0520057, Final residual = 2.55242e-07, No Iterations 5
linear solve U 31.2 [ms]
piso setup 8.55 [ms]
 correctNonOrthogonal 
 setRef 
 startSolve 
PETSc-cg:  Solving for p, Initial residual = 0.0139029, Final residual = 9.90083e-05, No Iterations 288
linear solve p 144.121 [ms]
piso step 149.724 [ms]
 contErrors 
time step continuity errors : sum local = 2.67213e-09, global = -1.85491e-21, cumulative = -2.03955e-20
piso setup 6.95 [ms]
 correctNonOrthogonal 
 setRef 
 startSolve 
PETSc-cg:  Solving for p, Initial residual = 0.0112151, Final residual = 9.7597e-05, No Iterations 283
linear solve p 141.143 [ms]
piso step 145.842 [ms]
 contErrors 
time step continuity errors : sum local = 2.58856e-09, global = -1.69721e-21, cumulative = -2.20927e-20
ExecutionTime = 6.21 s  ClockTime = 6 s

Time = 0.001

Courant Number mean: 0.00664438 max: 0.089014
DILUPBiCGStab:  Solving for Ux, Initial residual = 0.0181846, Final residual = 1.82148e-07, No Iterations 5
DILUPBiCGStab:  Solving for Uy, Initial residual = 0.0252122, Final residual = 1.11408e-07, No Iterations 5
DILUPBiCGStab:  Solving for Uz, Initial residual = 0.0465187, Final residual = 2.20618e-07, No Iterations 5
linear solve U 33.039 [ms]
piso setup 7.038 [ms]
 correctNonOrthogonal 
 setRef 
 startSolve 
PETSc-cg:  Solving for p, Initial residual = 0.0118838, Final residual = 9.92334e-05, No Iterations 285
linear solve p 145.001 [ms]
piso step 148.887 [ms]
 contErrors 
time step continuity errors : sum local = 2.69371e-09, global = -2.21298e-21, cumulative = -2.43057e-20
piso setup 6.093 [ms]
 correctNonOrthogonal 
 setRef 
 startSolve 
PETSc-cg:  Solving for p, Initial residual = 0.00962496, Final residual = 9.93683e-05, No Iterations 280
linear solve p 146.961 [ms]
piso step 151.537 [ms]
 contErrors 
time step continuity errors : sum local = 2.65641e-09, global = -9.34363e-22, cumulative = -2.52401e-20
ExecutionTime = 6.57 s  ClockTime = 7 s

Time = 0.0011

Courant Number mean: 0.00694533 max: 0.0895673
DILUPBiCGStab:  Solving for Ux, Initial residual = 0.016298, Final residual = 1.5498e-07, No Iterations 5
DILUPBiCGStab:  Solving for Uy, Initial residual = 0.0224932, Final residual = 9.81169e-08, No Iterations 5
DILUPBiCGStab:  Solving for Uz, Initial residual = 0.042037, Final residual = 1.969e-07, No Iterations 5
linear solve U 31.342 [ms]
piso setup 8.774 [ms]
 correctNonOrthogonal 
 setRef 
 startSolve 
PETSc-cg:  Solving for p, Initial residual = 0.0102912, Final residual = 9.84939e-05, No Iterations 283
linear solve p 143.302 [ms]
piso step 148.917 [ms]
 contErrors 
time step continuity errors : sum local = 2.69147e-09, global = -9.34466e-22, cumulative = -2.61746e-20
piso setup 6.833 [ms]
 correctNonOrthogonal 
 setRef 
 startSolve 
PETSc-cg:  Solving for p, Initial residual = 0.00836046, Final residual = 9.49997e-05, No Iterations 278
linear solve p 149.642 [ms]
piso step 152.838 [ms]
 contErrors 
time step continuity errors : sum local = 2.57122e-09, global = -2.54956e-21, cumulative = -2.87241e-20
ExecutionTime = 6.93 s  ClockTime = 7 s

Time = 0.0012

Courant Number mean: 0.0072238 max: 0.0900356
DILUPBiCGStab:  Solving for Ux, Initial residual = 0.0147479, Final residual = 1.33541e-07, No Iterations 5
DILUPBiCGStab:  Solving for Uy, Initial residual = 0.0202888, Final residual = 8.7765e-08, No Iterations 5
DILUPBiCGStab:  Solving for Uz, Initial residual = 0.038311, Final residual = 1.79027e-07, No Iterations 5
linear solve U 35.413 [ms]
piso setup 9.701 [ms]
 correctNonOrthogonal 
 setRef 
 startSolve 
PETSc-cg:  Solving for p, Initial residual = 0.00904511, Final residual = 9.76134e-05, No Iterations 279
linear solve p 152.882 [ms]
piso step 157.165 [ms]
 contErrors 
time step continuity errors : sum local = 2.68331e-09, global = -2.36863e-21, cumulative = -3.10927e-20
piso setup 6.868 [ms]
 correctNonOrthogonal 
 setRef 
 startSolve 
PETSc-cg:  Solving for p, Initial residual = 0.007385, Final residual = 9.84071e-05, No Iterations 275
linear solve p 147.041 [ms]
piso step 152.521 [ms]
 contErrors 
time step continuity errors : sum local = 2.67241e-09, global = -1.72862e-21, cumulative = -3.28214e-20
ExecutionTime = 7.31 s  ClockTime = 7 s

Time = 0.0013

Courant Number mean: 0.00748302 max: 0.0904386
DILUPBiCGStab:  Solving for Ux, Initial residual = 0.0134667, Final residual = 1.16451e-07, No Iterations 5
DILUPBiCGStab:  Solving for Uy, Initial residual = 0.0184655, Final residual = 7.94789e-08, No Iterations 5
DILUPBiCGStab:  Solving for Uz, Initial residual = 0.0351691, Final residual = 1.64384e-07, No Iterations 5
linear solve U 30.367 [ms]
piso setup 6.248 [ms]
 correctNonOrthogonal 
 setRef 
 startSolve 
PETSc-cg:  Solving for p, Initial residual = 0.0080939, Final residual = 9.75388e-05, No Iterations 276
linear solve p 137.191 [ms]
piso step 141.423 [ms]
 contErrors 
time step continuity errors : sum local = 2.69395e-09, global = -1.70844e-21, cumulative = -3.45298e-20
piso setup 6.368 [ms]
 correctNonOrthogonal 
 setRef 
 startSolve 
PETSc-cg:  Solving for p, Initial residual = 0.00662863, Final residual = 9.96906e-05, No Iterations 271
linear solve p 134.497 [ms]
piso step 137.388 [ms]
 contErrors 
time step continuity errors : sum local = 2.71997e-09, global = -7.95872e-22, cumulative = -3.53257e-20
ExecutionTime = 7.66 s  ClockTime = 8 s

Time = 0.0014

Courant Number mean: 0.00772784 max: 0.0907903
DILUPBiCGStab:  Solving for Ux, Initial residual = 0.0123791, Final residual = 1.02685e-07, No Iterations 5
DILUPBiCGStab:  Solving for Uy, Initial residual = 0.0169327, Final residual = 7.27048e-08, No Iterations 5
DILUPBiCGStab:  Solving for Uz, Initial residual = 0.0324831, Final residual = 1.51562e-07, No Iterations 5
linear solve U 33.296 [ms]
piso setup 6.131 [ms]
 correctNonOrthogonal 
 setRef 
 startSolve 
PETSc-cg:  Solving for p, Initial residual = 0.00727972, Final residual = 9.82432e-05, No Iterations 274
linear solve p 134.951 [ms]
piso step 139.596 [ms]
 contErrors 
time step continuity errors : sum local = 2.72245e-09, global = -2.63132e-21, cumulative = -3.7957e-20
piso setup 7.52 [ms]
 correctNonOrthogonal 
 setRef 
 startSolve 
PETSc-cg:  Solving for p, Initial residual = 0.00597883, Final residual = 9.7126e-05, No Iterations 270
linear solve p 133.851 [ms]
piso step 136.532 [ms]
 contErrors 
time step continuity errors : sum local = 2.67086e-09, global = -5.36489e-22, cumulative = -3.84935e-20
ExecutionTime = 7.99 s  ClockTime = 8 s

Time = 0.0015

Courant Number mean: 0.00795861 max: 0.0911006
DILUPBiCGStab:  Solving for Ux, Initial residual = 0.0114468, Final residual = 9.14637e-08, No Iterations 5
DILUPBiCGStab:  Solving for Uy, Initial residual = 0.0156261, Final residual = 6.70755e-08, No Iterations 5
DILUPBiCGStab:  Solving for Uz, Initial residual = 0.0301614, Final residual = 1.39891e-07, No Iterations 5
linear solve U 36.517 [ms]
piso setup 6.424 [ms]
 correctNonOrthogonal 
 setRef 
 startSolve 
PETSc-cg:  Solving for p, Initial residual = 0.0065794, Final residual = 9.83623e-05, No Iterations 271
linear solve p 148.827 [ms]
piso step 155.571 [ms]
 contErrors 
time step continuity errors : sum local = 2.73484e-09, global = -1.42776e-21, cumulative = -3.99212e-20
piso setup 6.605 [ms]
 correctNonOrthogonal 
 setRef 
 startSolve 
PETSc-cg:  Solving for p, Initial residual = 0.00542534, Final residual = 9.86038e-05, No Iterations 266
linear solve p 133.017 [ms]
piso step 136.767 [ms]
 contErrors 
time step continuity errors : sum local = 2.71948e-09, global = -2.31106e-21, cumulative = -4.22323e-20
ExecutionTime = 8.36 s  ClockTime = 8 s

Time = 0.0016

Courant Number mean: 0.00817649 max: 0.0913769
DILUPBiCGStab:  Solving for Ux, Initial residual = 0.0106404, Final residual = 8.21873e-08, No Iterations 5
DILUPBiCGStab:  Solving for Uy, Initial residual = 0.0144993, Final residual = 6.23318e-08, No Iterations 5
DILUPBiCGStab:  Solving for Uz, Initial residual = 0.028136, Final residual = 1.29221e-07, No Iterations 5
linear solve U 32.457 [ms]
piso setup 5.823 [ms]
 correctNonOrthogonal 
 setRef 
 startSolve 
PETSc-cg:  Solving for p, Initial residual = 0.00603103, Final residual = 9.85771e-05, No Iterations 271
linear solve p 134.203 [ms]
piso step 137.797 [ms]
 contErrors 
time step continuity errors : sum local = 2.74954e-09, global = -8.97905e-22, cumulative = -4.31302e-20
piso setup 6.391 [ms]
 correctNonOrthogonal 
 setRef 
 startSolve 
PETSc-cg:  Solving for p, Initial residual = 0.00496403, Final residual = 9.48642e-05, No Iterations 265
linear solve p 131.543 [ms]
piso step 135.484 [ms]
 contErrors 
time step continuity errors : sum local = 2.63826e-09, global = -1.188e-21, cumulative = -4.43182e-20
ExecutionTime = 8.7 s  ClockTime = 9 s

Time = 0.0017

Courant Number mean: 0.00838249 max: 0.0916252
DILUPBiCGStab:  Solving for Ux, Initial residual = 0.00993237, Final residual = 7.4453e-08, No Iterations 5
DILUPBiCGStab:  Solving for Uy, Initial residual = 0.0135175, Final residual = 5.8277e-08, No Iterations 5
DILUPBiCGStab:  Solving for Uz, Initial residual = 0.0263532, Final residual = 1.19366e-07, No Iterations 5
linear solve U 34.924 [ms]
piso setup 5.739 [ms]
 correctNonOrthogonal 
 setRef 
 startSolve 
PETSc-cg:  Solving for p, Initial residual = 0.00548755, Final residual = 9.985e-05, No Iterations 266
linear solve p 139.453 [ms]
piso step 143.886 [ms]
 contErrors 
time step continuity errors : sum local = 2.78843e-09, global = -2.93953e-21, cumulative = -4.72577e-20
piso setup 5.576 [ms]
 correctNonOrthogonal 
 setRef 
 startSolve 
PETSc-cg:  Solving for p, Initial residual = 0.00454712, Final residual = 9.65133e-05, No Iterations 263
linear solve p 133.98 [ms]
piso step 137.89 [ms]
 contErrors 
time step continuity errors : sum local = 2.68842e-09, global = -1.71311e-21, cumulative = -4.89708e-20
ExecutionTime = 9.04 s  ClockTime = 9 s

Time = 0.0018

Courant Number mean: 0.00857955 max: 0.0918497
DILUPBiCGStab:  Solving for Ux, Initial residual = 0.00931096, Final residual = 6.79455e-08, No Iterations 5
DILUPBiCGStab:  Solving for Uy, Initial residual = 0.0126547, Final residual = 5.47788e-08, No Iterations 5
DILUPBiCGStab:  Solving for Uz, Initial residual = 0.0247729, Final residual = 1.10453e-07, No Iterations 5
linear solve U 30.345 [ms]
piso setup 5.379 [ms]
 correctNonOrthogonal 
 setRef 
 startSolve 
PETSc-cg:  Solving for p, Initial residual = 0.00513448, Final residual = 9.92892e-05, No Iterations 264
linear solve p 131.067 [ms]
piso step 134.45 [ms]
 contErrors 
time step continuity errors : sum local = 2.78248e-09, global = -1.8334e-21, cumulative = -5.08042e-20
piso setup 6.504 [ms]
 correctNonOrthogonal 
 setRef 
 startSolve 
PETSc-cg:  Solving for p, Initial residual = 0.00426318, Final residual = 9.02729e-05, No Iterations 262
linear solve p 144.997 [ms]
piso step 148.736 [ms]
 contErrors 
time step continuity errors : sum local = 2.54295e-09, global = -1.36189e-21, cumulative = -5.21661e-20
ExecutionTime = 9.38 s  ClockTime = 9 s

Time = 0.0019

Courant Number mean: 0.00876813 max: 0.092054
DILUPBiCGStab:  Solving for Ux, Initial residual = 0.00875811, Final residual = 6.23849e-08, No Iterations 5
DILUPBiCGStab:  Solving for Uy, Initial residual = 0.0118904, Final residual = 5.17233e-08, No Iterations 5
DILUPBiCGStab:  Solving for Uz, Initial residual = 0.0233622, Final residual = 1.02408e-07, No Iterations 5
linear solve U 31.128 [ms]
piso setup 5.463 [ms]
 correctNonOrthogonal 
 setRef 
 startSolve 
PETSc-cg:  Solving for p, Initial residual = 0.00475328, Final residual = 9.85989e-05, No Iterations 265
linear solve p 137.093 [ms]
piso step 141.119 [ms]
 contErrors 
time step continuity errors : sum local = 2.77199e-09, global = -2.50658e-21, cumulative = -5.46727e-20
piso setup 5.601 [ms]
 correctNonOrthogonal 
 setRef 
 startSolve 
PETSc-cg:  Solving for p, Initial residual = 0.00394528, Final residual = 9.70029e-05, No Iterations 259
linear solve p 142.093 [ms]
piso step 146.597 [ms]
 contErrors 
time step continuity errors : sum local = 2.7172e-09, global = -4.52501e-21, cumulative = -5.91977e-20
ExecutionTime = 9.73 s  ClockTime = 10 s

Time = 0.002

Courant Number mean: 0.00894849 max: 0.0922409
DILUPBiCGStab:  Solving for Ux, Initial residual = 0.00826098, Final residual = 5.7601e-08, No Iterations 5
DILUPBiCGStab:  Solving for Uy, Initial residual = 0.0112088, Final residual = 4.90317e-08, No Iterations 5
DILUPBiCGStab:  Solving for Uz, Initial residual = 0.0220958, Final residual = 9.51236e-08, No Iterations 5
linear solve U 36.738 [ms]
piso setup 8.665 [ms]
 correctNonOrthogonal 
 setRef 
 startSolve 
PETSc-cg:  Solving for p, Initial residual = 0.00439851, Final residual = 9.92572e-05, No Iterations 263
linear solve p 140.192 [ms]
piso step 151.2 [ms]
 contErrors 
time step continuity errors : sum local = 2.79427e-09, global = -1.78166e-21, cumulative = -6.09794e-20
piso setup 9.069 [ms]
 correctNonOrthogonal 
 setRef 
 startSolve 
PETSc-cg:  Solving for p, Initial residual = 0.00365414, Final residual = 9.72807e-05, No Iterations 255
linear solve p 129.4 [ms]
piso step 133.166 [ms]
 contErrors 
time step continuity errors : sum local = 2.73112e-09, global = -5.57499e-22, cumulative = -6.15369e-20
ExecutionTime = 10.08 s  ClockTime = 10 s

End

Finalizing PETSc
Finalising parallel run
================================================================================
hash: d38094794bc977c8b45fe7c9c03eb493
/*---------------------------------------------------------------------------*\
| =========                 |                                                 |
| \\      /  F ield         | OpenFOAM: The Open Source CFD Toolbox           |
|  \\    /   O peration     | Version:  v2106                                 |
|   \\  /    A nd           | Website:  www.openfoam.com                      |
|    \\/     M anipulation  |                                                 |
\*---------------------------------------------------------------------------*/
Build  : f815a12bba-20210902 OPENFOAM=2106
Arch   : "LSB;label=32;scalar=64"
Exec   : icoFoam -parallel
Date   : Oct 07 2022
Time   : 12:02:40
Host   : nla-gpu2.ianm.kit.edu
PID    : 1653040
I/O    : uncollated
Case   : /home/greole/data/code/ogl_labbook/lidDrivenCavity/single_node/mesh/150/matrix_solver/CG_NoPrecond_PETSC_Default/mpiRank_of/32/base
nProcs : 32
Hosts  :
(
    (nla-gpu2.ianm.kit.edu 32)
)
Pstream initialized with:
    floatTransfer      : 0
    nProcsSimpleSum    : 0
    commsType          : nonBlocking
    polling iterations : 0
trapFpe: Floating point exception trapping enabled (FOAM_SIGFPE).
fileModificationChecking : Monitoring run-time modified files using timeStampMaster (fileModificationSkew 5, maxFileModificationPolls 20)
allowSystemOperations : Allowing user-supplied system call operations

// * * * * * * * * * * * * * * * * * * * * * * * * * * * * * * * * * * * * * //
Create time

Create mesh for time = 0


PISO: Operating solver in PISO mode

Reading transportProperties

Reading field p

Reading field U

Reading/calculating face flux field phi


Starting time loop

Time = 6.66667e-05

Courant Number mean: 0 max: 0
DILUPBiCGStab:  Solving for Ux, Initial residual = 1, Final residual = 3.89947e-05, No Iterations 5
DILUPBiCGStab:  Solving for Uy:  solution singularity
DILUPBiCGStab:  Solving for Uz:  solution singularity
linear solve U 117.183 [ms]
piso setup 76.342 [ms]
 correctNonOrthogonal 
 setRef 
 startSolve 
Initializing PETSc
PETSc-cg:  Solving for p, Initial residual = 1, Final residual = 9.93395e-05, No Iterations 1199
linear solve p 3327.6 [ms]
piso step 3361.3 [ms]
 contErrors 
time step continuity errors : sum local = 9.91803e-10, global = 1.51763e-22, cumulative = 1.51763e-22
piso setup 66.287 [ms]
 correctNonOrthogonal 
 setRef 
 startSolve 
PETSc-cg:  Solving for p, Initial residual = 0.611423, Final residual = 9.85808e-05, No Iterations 1177
linear solve p 3097.27 [ms]
piso step 3126.43 [ms]
 contErrors 
time step continuity errors : sum local = 1.46395e-09, global = 1.58662e-22, cumulative = 3.10425e-22
ExecutionTime = 7.61 s  ClockTime = 8 s

Time = 0.000133333

Courant Number mean: 0.00174417 max: 0.0611824
DILUPBiCGStab:  Solving for Ux, Initial residual = 0.201555, Final residual = 2.5587e-05, No Iterations 5
DILUPBiCGStab:  Solving for Uy, Initial residual = 0.321506, Final residual = 2.53455e-05, No Iterations 5
DILUPBiCGStab:  Solving for Uz, Initial residual = 0.989645, Final residual = 8.36039e-05, No Iterations 5
linear solve U 140.032 [ms]
piso setup 40.457 [ms]
 correctNonOrthogonal 
 setRef 
 startSolve 
PETSc-cg:  Solving for p, Initial residual = 0.453047, Final residual = 9.37079e-05, No Iterations 1164
linear solve p 3032.22 [ms]
piso step 3052.5 [ms]
 contErrors 
time step continuity errors : sum local = 1.34121e-09, global = 5.68411e-23, cumulative = 3.67266e-22
piso setup 30.053 [ms]
 correctNonOrthogonal 
 setRef 
 startSolve 
PETSc-cg:  Solving for p, Initial residual = 0.360331, Final residual = 9.8946e-05, No Iterations 1159
linear solve p 3022.48 [ms]
piso step 3042.35 [ms]
 contErrors 
time step continuity errors : sum local = 1.46914e-09, global = 4.88381e-23, cumulative = 4.16104e-22
ExecutionTime = 13.96 s  ClockTime = 14 s

Time = 0.0002

Courant Number mean: 0.00271566 max: 0.0777794
DILUPBiCGStab:  Solving for Ux, Initial residual = 0.0868446, Final residual = 9.95981e-06, No Iterations 5
DILUPBiCGStab:  Solving for Uy, Initial residual = 0.138256, Final residual = 7.27525e-06, No Iterations 5
DILUPBiCGStab:  Solving for Uz, Initial residual = 0.144776, Final residual = 1.45401e-05, No Iterations 5
linear solve U 139.344 [ms]
piso setup 31.368 [ms]
 correctNonOrthogonal 
 setRef 
 startSolve 
PETSc-cg:  Solving for p, Initial residual = 0.173752, Final residual = 9.93609e-05, No Iterations 1138
linear solve p 2928.69 [ms]
piso step 2950.82 [ms]
 contErrors 
time step continuity errors : sum local = 1.17013e-09, global = 5.10914e-22, cumulative = 9.27018e-22
piso setup 26.227 [ms]
 correctNonOrthogonal 
 setRef 
 startSolve 
PETSc-cg:  Solving for p, Initial residual = 0.141199, Final residual = 9.99665e-05, No Iterations 1116
linear solve p 2874.88 [ms]
piso step 2890.52 [ms]
 contErrors 
time step continuity errors : sum local = 1.17498e-09, global = -3.49017e-22, cumulative = 5.78001e-22
ExecutionTime = 20.05 s  ClockTime = 20 s

Time = 0.000266667

Courant Number mean: 0.0033815 max: 0.0835577
DILUPBiCGStab:  Solving for Ux, Initial residual = 0.0544582, Final residual = 4.48347e-06, No Iterations 5
DILUPBiCGStab:  Solving for Uy, Initial residual = 0.086037, Final residual = 4.06591e-06, No Iterations 5
DILUPBiCGStab:  Solving for Uz, Initial residual = 0.11682, Final residual = 7.57029e-06, No Iterations 5
linear solve U 149.348 [ms]
piso setup 34.055 [ms]
 correctNonOrthogonal 
 setRef 
 startSolve 
PETSc-cg:  Solving for p, Initial residual = 0.0874772, Final residual = 9.94291e-05, No Iterations 1106
linear solve p 2857.84 [ms]
piso step 2876.11 [ms]
 contErrors 
time step continuity errors : sum local = 1.11624e-09, global = 1.08111e-22, cumulative = 6.86112e-22
piso setup 24.269 [ms]
 correctNonOrthogonal 
 setRef 
 startSolve 
PETSc-cg:  Solving for p, Initial residual = 0.0701589, Final residual = 9.90987e-05, No Iterations 1099
linear solve p 2802.58 [ms]
piso step 2819.15 [ms]
 contErrors 
time step continuity errors : sum local = 1.12683e-09, global = 4.52771e-22, cumulative = 1.13888e-21
ExecutionTime = 25.98 s  ClockTime = 26 s

Time = 0.000333333

Courant Number mean: 0.00390573 max: 0.0863402
DILUPBiCGStab:  Solving for Ux, Initial residual = 0.0400408, Final residual = 3.07964e-06, No Iterations 5
DILUPBiCGStab:  Solving for Uy, Initial residual = 0.0618407, Final residual = 2.44931e-06, No Iterations 5
DILUPBiCGStab:  Solving for Uz, Initial residual = 0.093447, Final residual = 4.58844e-06, No Iterations 5
linear solve U 146.061 [ms]
piso setup 24.981 [ms]
 correctNonOrthogonal 
 setRef 
 startSolve 
PETSc-cg:  Solving for p, Initial residual = 0.0476586, Final residual = 9.82644e-05, No Iterations 537
linear solve p 1381.29 [ms]
piso step 1395.14 [ms]
 contErrors 
time step continuity errors : sum local = 1.21966e-09, global = 5.02747e-22, cumulative = 1.64163e-21
piso setup 23.312 [ms]
 correctNonOrthogonal 
 setRef 
 startSolve 
PETSc-cg:  Solving for p, Initial residual = 0.0395758, Final residual = 9.81752e-05, No Iterations 509
linear solve p 1329.39 [ms]
piso step 1343.85 [ms]
 contErrors 
time step continuity errors : sum local = 1.14672e-09, global = 5.52371e-22, cumulative = 2.194e-21
ExecutionTime = 28.96 s  ClockTime = 29 s

Time = 0.0004

Courant Number mean: 0.00434732 max: 0.0880159
DILUPBiCGStab:  Solving for Ux, Initial residual = 0.0318467, Final residual = 1.98518e-06, No Iterations 5
DILUPBiCGStab:  Solving for Uy, Initial residual = 0.0483434, Final residual = 1.54889e-06, No Iterations 5
DILUPBiCGStab:  Solving for Uz, Initial residual = 0.0786536, Final residual = 3.44659e-06, No Iterations 5
linear solve U 144.06 [ms]
piso setup 25.428 [ms]
 correctNonOrthogonal 
 setRef 
 startSolve 
PETSc-cg:  Solving for p, Initial residual = 0.0313499, Final residual = 9.92795e-05, No Iterations 485
linear solve p 1254.12 [ms]
piso step 1269.79 [ms]
 contErrors 
time step continuity errors : sum local = 1.17344e-09, global = 2.91528e-22, cumulative = 2.48553e-21
piso setup 24.238 [ms]
 correctNonOrthogonal 
 setRef 
 startSolve 
PETSc-cg:  Solving for p, Initial residual = 0.0263749, Final residual = 9.95745e-05, No Iterations 472
linear solve p 1212.11 [ms]
piso step 1227.52 [ms]
 contErrors 
time step continuity errors : sum local = 1.1581e-09, global = 2.69178e-23, cumulative = 2.51245e-21
ExecutionTime = 31.69 s  ClockTime = 32 s

Time = 0.000466667

Courant Number mean: 0.00473116 max: 0.0891667
DILUPBiCGStab:  Solving for Ux, Initial residual = 0.0265062, Final residual = 1.54297e-06, No Iterations 5
DILUPBiCGStab:  Solving for Uy, Initial residual = 0.0396433, Final residual = 1.13047e-06, No Iterations 5
DILUPBiCGStab:  Solving for Uz, Initial residual = 0.0668578, Final residual = 2.8197e-06, No Iterations 5
linear solve U 138.921 [ms]
piso setup 22.368 [ms]
 correctNonOrthogonal 
 setRef 
 startSolve 
PETSc-cg:  Solving for p, Initial residual = 0.0241477, Final residual = 9.8493e-05, No Iterations 467
linear solve p 1200.19 [ms]
piso step 1216.84 [ms]
 contErrors 
time step continuity errors : sum local = 1.19472e-09, global = 2.47251e-22, cumulative = 2.7597e-21
piso setup 23.836 [ms]
 correctNonOrthogonal 
 setRef 
 startSolve 
PETSc-cg:  Solving for p, Initial residual = 0.0205296, Final residual = 9.91831e-05, No Iterations 452
linear solve p 1171.69 [ms]
piso step 1184.89 [ms]
 contErrors 
time step continuity errors : sum local = 1.17058e-09, global = 6.74159e-22, cumulative = 3.43386e-21
ExecutionTime = 34.33 s  ClockTime = 35 s

Time = 0.000533333

Courant Number mean: 0.00507434 max: 0.0900213
DILUPBiCGStab:  Solving for Ux, Initial residual = 0.0227241, Final residual = 1.24579e-06, No Iterations 5
DILUPBiCGStab:  Solving for Uy, Initial residual = 0.0335808, Final residual = 8.6645e-07, No Iterations 5
DILUPBiCGStab:  Solving for Uz, Initial residual = 0.0582581, Final residual = 2.42438e-06, No Iterations 5
linear solve U 141.356 [ms]
piso setup 22.114 [ms]
 correctNonOrthogonal 
 setRef 
 startSolve 
PETSc-cg:  Solving for p, Initial residual = 0.0189179, Final residual = 9.65244e-05, No Iterations 452
linear solve p 1159.21 [ms]
piso step 1173.16 [ms]
 contErrors 
time step continuity errors : sum local = 1.16304e-09, global = -2.9358e-23, cumulative = 3.4045e-21
piso setup 24.73 [ms]
 correctNonOrthogonal 
 setRef 
 startSolve 
PETSc-cg:  Solving for p, Initial residual = 0.0162814, Final residual = 9.93945e-05, No Iterations 443
linear solve p 1151.99 [ms]
piso step 1162.57 [ms]
 contErrors 
time step continuity errors : sum local = 1.17893e-09, global = 2.69999e-22, cumulative = 3.6745e-21
ExecutionTime = 36.9 s  ClockTime = 37 s

Time = 0.0006

Courant Number mean: 0.00538422 max: 0.0906888
DILUPBiCGStab:  Solving for Ux, Initial residual = 0.0198902, Final residual = 1.01501e-06, No Iterations 5
DILUPBiCGStab:  Solving for Uy, Initial residual = 0.0291029, Final residual = 7.04755e-07, No Iterations 5
DILUPBiCGStab:  Solving for Uz, Initial residual = 0.0516527, Final residual = 2.1382e-06, No Iterations 5
linear solve U 137.268 [ms]
piso setup 25.431 [ms]
 correctNonOrthogonal 
 setRef 
 startSolve 
PETSc-cg:  Solving for p, Initial residual = 0.0159041, Final residual = 9.69152e-05, No Iterations 443
linear solve p 1155.33 [ms]
piso step 1169.35 [ms]
 contErrors 
time step continuity errors : sum local = 1.1784e-09, global = 6.73566e-23, cumulative = 3.74185e-21
piso setup 22.349 [ms]
 correctNonOrthogonal 
 setRef 
 startSolve 
PETSc-cg:  Solving for p, Initial residual = 0.0137461, Final residual = 9.71534e-05, No Iterations 437
linear solve p 1121.4 [ms]
piso step 1132.84 [ms]
 contErrors 
time step continuity errors : sum local = 1.16291e-09, global = 1.46576e-22, cumulative = 3.88843e-21
ExecutionTime = 39.43 s  ClockTime = 40 s

Time = 0.000666667

Courant Number mean: 0.00566923 max: 0.0912289
DILUPBiCGStab:  Solving for Ux, Initial residual = 0.017683, Final residual = 8.38303e-07, No Iterations 5
DILUPBiCGStab:  Solving for Uy, Initial residual = 0.0256634, Final residual = 5.91549e-07, No Iterations 5
DILUPBiCGStab:  Solving for Uz, Initial residual = 0.046337, Final residual = 1.87002e-06, No Iterations 5
linear solve U 140.668 [ms]
piso setup 22.916 [ms]
 correctNonOrthogonal 
 setRef 
 startSolve 
PETSc-cg:  Solving for p, Initial residual = 0.0135395, Final residual = 9.66133e-05, No Iterations 437
linear solve p 1123.4 [ms]
piso step 1137.95 [ms]
 contErrors 
time step continuity errors : sum local = 1.17554e-09, global = 1.37415e-23, cumulative = 3.90217e-21
piso setup 22.379 [ms]
 correctNonOrthogonal 
 setRef 
 startSolve 
PETSc-cg:  Solving for p, Initial residual = 0.0117515, Final residual = 9.44105e-05, No Iterations 433
linear solve p 1113.53 [ms]
piso step 1124.49 [ms]
 contErrors 
time step continuity errors : sum local = 1.13747e-09, global = 4.2311e-22, cumulative = 4.32528e-21
ExecutionTime = 41.92 s  ClockTime = 42 s

Time = 0.000733333

Courant Number mean: 0.00593221 max: 0.0916776
DILUPBiCGStab:  Solving for Ux, Initial residual = 0.0159171, Final residual = 7.02924e-07, No Iterations 5
DILUPBiCGStab:  Solving for Uy, Initial residual = 0.0229363, Final residual = 5.10064e-07, No Iterations 5
DILUPBiCGStab:  Solving for Uz, Initial residual = 0.0420045, Final residual = 1.62762e-06, No Iterations 5
linear solve U 140.901 [ms]
piso setup 23.326 [ms]
 correctNonOrthogonal 
 setRef 
 startSolve 
PETSc-cg:  Solving for p, Initial residual = 0.0118168, Final residual = 9.43421e-05, No Iterations 433
linear solve p 1111.41 [ms]
piso step 1122.12 [ms]
 contErrors 
time step continuity errors : sum local = 1.15525e-09, global = 9.69425e-22, cumulative = 5.29471e-21
piso setup 21.556 [ms]
 correctNonOrthogonal 
 setRef 
 startSolve 
PETSc-cg:  Solving for p, Initial residual = 0.0102758, Final residual = 9.98708e-05, No Iterations 427
linear solve p 1101.62 [ms]
piso step 1113.41 [ms]
 contErrors 
time step continuity errors : sum local = 1.20617e-09, global = -4.03692e-22, cumulative = 4.89101e-21
ExecutionTime = 44.38 s  ClockTime = 45 s

Time = 0.0008

Courant Number mean: 0.00617735 max: 0.0920581
DILUPBiCGStab:  Solving for Ux, Initial residual = 0.0144668, Final residual = 5.9891e-07, No Iterations 5
DILUPBiCGStab:  Solving for Uy, Initial residual = 0.020722, Final residual = 4.48333e-07, No Iterations 5
DILUPBiCGStab:  Solving for Uz, Initial residual = 0.0383892, Final residual = 1.40679e-06, No Iterations 5
linear solve U 137.076 [ms]
piso setup 22.252 [ms]
 correctNonOrthogonal 
 setRef 
 startSolve 
PETSc-cg:  Solving for p, Initial residual = 0.010404, Final residual = 9.99297e-05, No Iterations 427
linear solve p 1091.09 [ms]
piso step 1104.21 [ms]
 contErrors 
time step continuity errors : sum local = 1.22168e-09, global = 3.97967e-22, cumulative = 5.28898e-21
piso setup 22.948 [ms]
 correctNonOrthogonal 
 setRef 
 startSolve 
PETSc-cg:  Solving for p, Initial residual = 0.00907719, Final residual = 9.84317e-05, No Iterations 424
linear solve p 1089.87 [ms]
piso step 1100.86 [ms]
 contErrors 
time step continuity errors : sum local = 1.19455e-09, global = 2.05458e-22, cumulative = 5.49444e-21
ExecutionTime = 46.81 s  ClockTime = 47 s

Time = 0.000866667

Courant Number mean: 0.00640756 max: 0.0923861
DILUPBiCGStab:  Solving for Ux, Initial residual = 0.0132555, Final residual = 5.1783e-07, No Iterations 5
DILUPBiCGStab:  Solving for Uy, Initial residual = 0.018888, Final residual = 4.00369e-07, No Iterations 5
DILUPBiCGStab:  Solving for Uz, Initial residual = 0.0353373, Final residual = 1.21382e-06, No Iterations 5
linear solve U 140.964 [ms]
piso setup 22.294 [ms]
 correctNonOrthogonal 
 setRef 
 startSolve 
PETSc-cg:  Solving for p, Initial residual = 0.00932176, Final residual = 8.92885e-05, No Iterations 425
linear solve p 1107.01 [ms]
piso step 1118.17 [ms]
 contErrors 
time step continuity errors : sum local = 1.10348e-09, global = -1.3838e-23, cumulative = 5.4806e-21
piso setup 20.729 [ms]
 correctNonOrthogonal 
 setRef 
 startSolve 
PETSc-cg:  Solving for p, Initial residual = 0.00814792, Final residual = 9.76651e-05, No Iterations 420
linear solve p 1081 [ms]
piso step 1092.01 [ms]
 contErrors 
time step continuity errors : sum local = 1.19042e-09, global = -2.59935e-22, cumulative = 5.22067e-21
ExecutionTime = 49.24 s  ClockTime = 50 s

Time = 0.000933333

Courant Number mean: 0.00662382 max: 0.0926725
DILUPBiCGStab:  Solving for Ux, Initial residual = 0.0122271, Final residual = 4.53891e-07, No Iterations 5
DILUPBiCGStab:  Solving for Uy, Initial residual = 0.0173444, Final residual = 3.6198e-07, No Iterations 5
DILUPBiCGStab:  Solving for Uz, Initial residual = 0.0327199, Final residual = 1.04792e-06, No Iterations 5
linear solve U 138.917 [ms]
piso setup 22.617 [ms]
 correctNonOrthogonal 
 setRef 
 startSolve 
PETSc-cg:  Solving for p, Initial residual = 0.00835649, Final residual = 9.70634e-05, No Iterations 421
linear solve p 1077.27 [ms]
piso step 1087.23 [ms]
 contErrors 
time step continuity errors : sum local = 1.19528e-09, global = 5.88008e-22, cumulative = 5.80867e-21
piso setup 24.255 [ms]
 correctNonOrthogonal 
 setRef 
 startSolve 
PETSc-cg:  Solving for p, Initial residual = 0.0073242, Final residual = 9.56554e-05, No Iterations 417
linear solve p 1068.66 [ms]
piso step 1080.62 [ms]
 contErrors 
time step continuity errors : sum local = 1.17114e-09, global = -3.50049e-22, cumulative = 5.45862e-21
ExecutionTime = 51.63 s  ClockTime = 52 s

Time = 0.001

Courant Number mean: 0.00682868 max: 0.0929255
DILUPBiCGStab:  Solving for Ux, Initial residual = 0.0113437, Final residual = 4.02984e-07, No Iterations 5
DILUPBiCGStab:  Solving for Uy, Initial residual = 0.0160273, Final residual = 3.30749e-07, No Iterations 5
DILUPBiCGStab:  Solving for Uz, Initial residual = 0.0304531, Final residual = 9.10414e-07, No Iterations 5
linear solve U 139.649 [ms]
piso setup 22.173 [ms]
 correctNonOrthogonal 
 setRef 
 startSolve 
PETSc-cg:  Solving for p, Initial residual = 0.00760653, Final residual = 9.78905e-05, No Iterations 418
linear solve p 1087.52 [ms]
piso step 1099.7 [ms]
 contErrors 
time step continuity errors : sum local = 1.20778e-09, global = -5.66274e-22, cumulative = 4.89235e-21
piso setup 26.411 [ms]
 correctNonOrthogonal 
 setRef 
 startSolve 
PETSc-cg:  Solving for p, Initial residual = 0.00668192, Final residual = 9.64462e-05, No Iterations 412
linear solve p 1059.88 [ms]
piso step 1071.38 [ms]
 contErrors 
time step continuity errors : sum local = 1.18383e-09, global = 2.06747e-22, cumulative = 5.0991e-21
ExecutionTime = 54.03 s  ClockTime = 55 s

Time = 0.00106667

Courant Number mean: 0.00702348 max: 0.093151
DILUPBiCGStab:  Solving for Ux, Initial residual = 0.010576, Final residual = 3.62667e-07, No Iterations 5
DILUPBiCGStab:  Solving for Uy, Initial residual = 0.0148905, Final residual = 3.04808e-07, No Iterations 5
DILUPBiCGStab:  Solving for Uz, Initial residual = 0.0284688, Final residual = 7.97678e-07, No Iterations 5
linear solve U 136.593 [ms]
piso setup 22.453 [ms]
 correctNonOrthogonal 
 setRef 
 startSolve 
PETSc-cg:  Solving for p, Initial residual = 0.00695733, Final residual = 9.98947e-05, No Iterations 416
linear solve p 1068.32 [ms]
piso step 1078.15 [ms]
 contErrors 
time step continuity errors : sum local = 1.23327e-09, global = -3.97185e-23, cumulative = 5.05938e-21
piso setup 22.354 [ms]
 correctNonOrthogonal 
 setRef 
 startSolve 
PETSc-cg:  Solving for p, Initial residual = 0.00611368, Final residual = 9.56626e-05, No Iterations 410
linear solve p 1049.22 [ms]
piso step 1059.72 [ms]
 contErrors 
time step continuity errors : sum local = 1.17792e-09, global = -1.27855e-22, cumulative = 4.93152e-21
ExecutionTime = 56.39 s  ClockTime = 57 s

Time = 0.00113333

Courant Number mean: 0.00720866 max: 0.0933538
DILUPBiCGStab:  Solving for Ux, Initial residual = 0.00990237, Final residual = 3.29711e-07, No Iterations 5
DILUPBiCGStab:  Solving for Uy, Initial residual = 0.0138992, Final residual = 2.82949e-07, No Iterations 5
DILUPBiCGStab:  Solving for Uz, Initial residual = 0.026718, Final residual = 7.05363e-07, No Iterations 5
linear solve U 136.924 [ms]
piso setup 22.186 [ms]
 correctNonOrthogonal 
 setRef 
 startSolve 
PETSc-cg:  Solving for p, Initial residual = 0.00635459, Final residual = 9.94781e-05, No Iterations 411
linear solve p 1060.97 [ms]
piso step 1072.37 [ms]
 contErrors 
time step continuity errors : sum local = 1.23083e-09, global = 2.71136e-22, cumulative = 5.20266e-21
piso setup 24.903 [ms]
 correctNonOrthogonal 
 setRef 
 startSolve 
PETSc-cg:  Solving for p, Initial residual = 0.00560526, Final residual = 9.78054e-05, No Iterations 405
linear solve p 1039.99 [ms]
piso step 1050.12 [ms]
 contErrors 
time step continuity errors : sum local = 1.20548e-09, global = 9.48845e-23, cumulative = 5.29755e-21
ExecutionTime = 58.73 s  ClockTime = 59 s

Time = 0.0012

Courant Number mean: 0.00738517 max: 0.0935373
DILUPBiCGStab:  Solving for Ux, Initial residual = 0.00930647, Final residual = 3.02032e-07, No Iterations 5
DILUPBiCGStab:  Solving for Uy, Initial residual = 0.0130275, Final residual = 2.64264e-07, No Iterations 5
DILUPBiCGStab:  Solving for Uz, Initial residual = 0.0251622, Final residual = 6.30616e-07, No Iterations 5
linear solve U 140.791 [ms]
piso setup 21.983 [ms]
 correctNonOrthogonal 
 setRef 
 startSolve 
PETSc-cg:  Solving for p, Initial residual = 0.00593335, Final residual = 9.56904e-05, No Iterations 411
linear solve p 1056.23 [ms]
piso step 1067.03 [ms]
 contErrors 
time step continuity errors : sum local = 1.18924e-09, global = -2.80552e-23, cumulative = 5.26949e-21
piso setup 21.677 [ms]
 correctNonOrthogonal 
 setRef 
 startSolve 
PETSc-cg:  Solving for p, Initial residual = 0.00522051, Final residual = 9.7142e-05, No Iterations 403
linear solve p 1044.26 [ms]
piso step 1055.91 [ms]
 contErrors 
time step continuity errors : sum local = 1.20048e-09, global = 2.15605e-22, cumulative = 5.48509e-21
ExecutionTime = 61.08 s  ClockTime = 62 s

Time = 0.00126667

Courant Number mean: 0.00755472 max: 0.0937044
DILUPBiCGStab:  Solving for Ux, Initial residual = 0.00877654, Final residual = 2.78497e-07, No Iterations 5
DILUPBiCGStab:  Solving for Uy, Initial residual = 0.0122548, Final residual = 2.48147e-07, No Iterations 5
DILUPBiCGStab:  Solving for Uz, Initial residual = 0.0237705, Final residual = 5.68878e-07, No Iterations 5
linear solve U 136.813 [ms]
piso setup 21.562 [ms]
 correctNonOrthogonal 
 setRef 
 startSolve 
PETSc-cg:  Solving for p, Initial residual = 0.00544407, Final residual = 9.8404e-05, No Iterations 405
linear solve p 1047.17 [ms]
piso step 1057 [ms]
 contErrors 
time step continuity errors : sum local = 1.22245e-09, global = -5.97803e-22, cumulative = 4.88729e-21
piso setup 21.808 [ms]
 correctNonOrthogonal 
 setRef 
 startSolve 
PETSc-cg:  Solving for p, Initial residual = 0.00481045, Final residual = 9.16116e-05, No Iterations 401
linear solve p 1033.63 [ms]
piso step 1044.73 [ms]
 contErrors 
time step continuity errors : sum local = 1.13876e-09, global = 5.55803e-22, cumulative = 5.44309e-21
ExecutionTime = 63.4 s  ClockTime = 64 s

Time = 0.00133333

Courant Number mean: 0.00771733 max: 0.0938574
DILUPBiCGStab:  Solving for Ux, Initial residual = 0.00829975, Final residual = 2.58194e-07, No Iterations 5
DILUPBiCGStab:  Solving for Uy, Initial residual = 0.0115654, Final residual = 2.3406e-07, No Iterations 5
DILUPBiCGStab:  Solving for Uz, Initial residual = 0.0225187, Final residual = 5.1845e-07, No Iterations 5
linear solve U 137.442 [ms]
piso setup 21.447 [ms]
 correctNonOrthogonal 
 setRef 
 startSolve 
PETSc-cg:  Solving for p, Initial residual = 0.00514534, Final residual = 9.69447e-05, No Iterations 404
linear solve p 1032.83 [ms]
piso step 1042.57 [ms]
 contErrors 
time step continuity errors : sum local = 1.20752e-09, global = 8.54271e-23, cumulative = 5.52852e-21
piso setup 22.366 [ms]
 correctNonOrthogonal 
 setRef 
 startSolve 
PETSc-cg:  Solving for p, Initial residual = 0.0045534, Final residual = 9.93101e-05, No Iterations 394
linear solve p 1010.04 [ms]
piso step 1019.99 [ms]
 contErrors 
time step continuity errors : sum local = 1.23011e-09, global = -1.44515e-22, cumulative = 5.38401e-21
ExecutionTime = 65.69 s  ClockTime = 66 s

End

Finalizing PETSc
Finalising parallel run
================================================================================
hash: 585410b7208fcaaa5f3f9bdd31a1b726
/*---------------------------------------------------------------------------*\
| =========                 |                                                 |
| \\      /  F ield         | OpenFOAM: The Open Source CFD Toolbox           |
|  \\    /   O peration     | Version:  v2106                                 |
|   \\  /    A nd           | Website:  www.openfoam.com                      |
|    \\/     M anipulation  |                                                 |
\*---------------------------------------------------------------------------*/
Build  : f815a12bba-20210902 OPENFOAM=2106
Arch   : "LSB;label=32;scalar=64"
Exec   : icoFoam -parallel
Date   : Oct 07 2022
Time   : 12:03:50
Host   : nla-gpu2.ianm.kit.edu
PID    : 1653257
I/O    : uncollated
Case   : /home/greole/data/code/ogl_labbook/lidDrivenCavity/single_node/mesh/200/matrix_solver/CG_NoPrecond_PETSC_Default/mpiRank_of/32/base
nProcs : 32
Hosts  :
(
    (nla-gpu2.ianm.kit.edu 32)
)
Pstream initialized with:
    floatTransfer      : 0
    nProcsSimpleSum    : 0
    commsType          : nonBlocking
    polling iterations : 0
trapFpe: Floating point exception trapping enabled (FOAM_SIGFPE).
fileModificationChecking : Monitoring run-time modified files using timeStampMaster (fileModificationSkew 5, maxFileModificationPolls 20)
allowSystemOperations : Allowing user-supplied system call operations

// * * * * * * * * * * * * * * * * * * * * * * * * * * * * * * * * * * * * * //
Create time

Create mesh for time = 0


PISO: Operating solver in PISO mode

Reading transportProperties

Reading field p

Reading field U

Reading/calculating face flux field phi


Starting time loop

Time = 5e-05

Courant Number mean: 0 max: 0
DILUPBiCGStab:  Solving for Ux, Initial residual = 1, Final residual = 0.000121814, No Iterations 5
DILUPBiCGStab:  Solving for Uy:  solution singularity
DILUPBiCGStab:  Solving for Uz:  solution singularity
linear solve U 289.768 [ms]
piso setup 112.772 [ms]
 correctNonOrthogonal 
 setRef 
 startSolve 
Initializing PETSc
PETSc-cg:  Solving for p, Initial residual = 1, Final residual = 9.94848e-05, No Iterations 1614
linear solve p 11490.5 [ms]
piso step 11538 [ms]
 contErrors 
time step continuity errors : sum local = 6.58725e-10, global = -3.07737e-24, cumulative = -3.07737e-24
piso setup 102.177 [ms]
 correctNonOrthogonal 
 setRef 
 startSolve 
PETSc-cg:  Solving for p, Initial residual = 0.645093, Final residual = 9.63331e-05, No Iterations 1587
linear solve p 10935.2 [ms]
piso step 10973.9 [ms]
 contErrors 
time step continuity errors : sum local = 9.21083e-10, global = 8.76366e-23, cumulative = 8.45592e-23
ExecutionTime = 24.57 s  ClockTime = 25 s

Time = 0.0001

Courant Number mean: 0.00156134 max: 0.0657803
DILUPBiCGStab:  Solving for Ux, Initial residual = 0.189842, Final residual = 7.89089e-05, No Iterations 5
DILUPBiCGStab:  Solving for Uy, Initial residual = 0.330054, Final residual = 7.67047e-05, No Iterations 5
DILUPBiCGStab:  Solving for Uz, Initial residual = 0.992764, Final residual = 0.000282505, No Iterations 5
linear solve U 409.454 [ms]
piso setup 80.749 [ms]
 correctNonOrthogonal 
 setRef 
 startSolve 
PETSc-cg:  Solving for p, Initial residual = 0.510327, Final residual = 9.66542e-05, No Iterations 1561
linear solve p 10732.5 [ms]
piso step 10772.6 [ms]
 contErrors 
time step continuity errors : sum local = 9.00972e-10, global = -1.5383e-23, cumulative = 6.91762e-23
piso setup 69.5 [ms]
 correctNonOrthogonal 
 setRef 
 startSolve 
PETSc-cg:  Solving for p, Initial residual = 0.421059, Final residual = 9.58861e-05, No Iterations 1556
linear solve p 10661.2 [ms]
piso step 10694.9 [ms]
 contErrors 
time step continuity errors : sum local = 9.21477e-10, global = 1.42848e-22, cumulative = 2.12024e-22
ExecutionTime = 46.6 s  ClockTime = 47 s

Time = 0.00015

Courant Number mean: 0.00241156 max: 0.0810516
DILUPBiCGStab:  Solving for Ux, Initial residual = 0.080351, Final residual = 2.73605e-05, No Iterations 5
DILUPBiCGStab:  Solving for Uy, Initial residual = 0.137294, Final residual = 1.74134e-05, No Iterations 5
DILUPBiCGStab:  Solving for Uz, Initial residual = 0.0914851, Final residual = 3.87402e-05, No Iterations 5
linear solve U 406.898 [ms]
piso setup 77.196 [ms]
 correctNonOrthogonal 
 setRef 
 startSolve 
PETSc-cg:  Solving for p, Initial residual = 0.252941, Final residual = 9.80541e-05, No Iterations 1526
linear solve p 10468 [ms]
piso step 10501.8 [ms]
 contErrors 
time step continuity errors : sum local = 7.05661e-10, global = 4.42307e-23, cumulative = 2.56255e-22
piso setup 70.161 [ms]
 correctNonOrthogonal 
 setRef 
 startSolve 
PETSc-cg:  Solving for p, Initial residual = 0.209329, Final residual = 9.83794e-05, No Iterations 1517
linear solve p 10410.6 [ms]
piso step 10444.2 [ms]
 contErrors 
time step continuity errors : sum local = 7.00209e-10, global = -4.96507e-23, cumulative = 2.06604e-22
ExecutionTime = 68.1 s  ClockTime = 68 s

Time = 0.0002

Courant Number mean: 0.00299652 max: 0.0859677
DILUPBiCGStab:  Solving for Ux, Initial residual = 0.0511434, Final residual = 1.34186e-05, No Iterations 5
DILUPBiCGStab:  Solving for Uy, Initial residual = 0.0858845, Final residual = 1.22913e-05, No Iterations 5
DILUPBiCGStab:  Solving for Uz, Initial residual = 0.111652, Final residual = 2.6197e-05, No Iterations 5
linear solve U 404.715 [ms]
piso setup 72.654 [ms]
 correctNonOrthogonal 
 setRef 
 startSolve 
PETSc-cg:  Solving for p, Initial residual = 0.123137, Final residual = 9.93197e-05, No Iterations 1485
linear solve p 10171.8 [ms]
piso step 10204.4 [ms]
 contErrors 
time step continuity errors : sum local = 6.71853e-10, global = -1.35363e-22, cumulative = 7.12409e-23
piso setup 73.695 [ms]
 correctNonOrthogonal 
 setRef 
 startSolve 
PETSc-cg:  Solving for p, Initial residual = 0.0998339, Final residual = 9.84631e-05, No Iterations 1480
linear solve p 10131.1 [ms]
piso step 10163.4 [ms]
 contErrors 
time step continuity errors : sum local = 6.73493e-10, global = -2.51376e-22, cumulative = -1.80135e-22
ExecutionTime = 89.01 s  ClockTime = 90 s

Time = 0.00025

Courant Number mean: 0.00346137 max: 0.088316
DILUPBiCGStab:  Solving for Ux, Initial residual = 0.0380473, Final residual = 7.03342e-06, No Iterations 5
DILUPBiCGStab:  Solving for Uy, Initial residual = 0.0619927, Final residual = 8.69556e-06, No Iterations 5
DILUPBiCGStab:  Solving for Uz, Initial residual = 0.0916067, Final residual = 1.41422e-05, No Iterations 5
linear solve U 405.978 [ms]
piso setup 75.029 [ms]
 correctNonOrthogonal 
 setRef 
 startSolve 
PETSc-cg:  Solving for p, Initial residual = 0.0624845, Final residual = 9.71893e-05, No Iterations 715
linear solve p 4922.33 [ms]
piso step 4957.02 [ms]
 contErrors 
time step continuity errors : sum local = 6.97195e-10, global = -3.61506e-22, cumulative = -5.41641e-22
piso setup 68.787 [ms]
 correctNonOrthogonal 
 setRef 
 startSolve 
PETSc-cg:  Solving for p, Initial residual = 0.0526116, Final residual = 9.92168e-05, No Iterations 682
linear solve p 4688.49 [ms]
piso step 4721.22 [ms]
 contErrors 
time step continuity errors : sum local = 6.7441e-10, global = -3.72438e-23, cumulative = -5.78885e-22
ExecutionTime = 99.33 s  ClockTime = 100 s

Time = 0.0003

Courant Number mean: 0.00385425 max: 0.0897419
DILUPBiCGStab:  Solving for Ux, Initial residual = 0.030493, Final residual = 5.10609e-06, No Iterations 5
DILUPBiCGStab:  Solving for Uy, Initial residual = 0.048605, Final residual = 5.49581e-06, No Iterations 5
DILUPBiCGStab:  Solving for Uz, Initial residual = 0.0778257, Final residual = 9.69466e-06, No Iterations 5
linear solve U 400.825 [ms]
piso setup 70.104 [ms]
 correctNonOrthogonal 
 setRef 
 startSolve 
PETSc-cg:  Solving for p, Initial residual = 0.0397256, Final residual = 9.97507e-05, No Iterations 652
linear solve p 4491.29 [ms]
piso step 4521.97 [ms]
 contErrors 
time step continuity errors : sum local = 6.72633e-10, global = -7.17114e-23, cumulative = -6.50597e-22
piso setup 68.495 [ms]
 correctNonOrthogonal 
 setRef 
 startSolve 
PETSc-cg:  Solving for p, Initial residual = 0.0336514, Final residual = 9.96196e-05, No Iterations 642
linear solve p 4417.7 [ms]
piso step 4449.22 [ms]
 contErrors 
time step continuity errors : sum local = 6.66947e-10, global = 2.09039e-22, cumulative = -4.41558e-22
ExecutionTime = 108.93 s  ClockTime = 110 s

Time = 0.00035

Courant Number mean: 0.00419842 max: 0.0907273
DILUPBiCGStab:  Solving for Ux, Initial residual = 0.0255221, Final residual = 4.25794e-06, No Iterations 5
DILUPBiCGStab:  Solving for Uy, Initial residual = 0.039931, Final residual = 4.05356e-06, No Iterations 5
DILUPBiCGStab:  Solving for Uz, Initial residual = 0.0666163, Final residual = 6.73373e-06, No Iterations 5
linear solve U 402.214 [ms]
piso setup 71.57 [ms]
 correctNonOrthogonal 
 setRef 
 startSolve 
PETSc-cg:  Solving for p, Initial residual = 0.0291684, Final residual = 9.9778e-05, No Iterations 633
linear solve p 4356.02 [ms]
piso step 4385.04 [ms]
 contErrors 
time step continuity errors : sum local = 6.94189e-10, global = 3.9248e-22, cumulative = -4.90773e-23
piso setup 69.751 [ms]
 correctNonOrthogonal 
 setRef 
 startSolve 
PETSc-cg:  Solving for p, Initial residual = 0.0253426, Final residual = 9.93538e-05, No Iterations 622
linear solve p 4274.98 [ms]
piso step 4304.97 [ms]
 contErrors 
time step continuity errors : sum local = 6.73435e-10, global = 4.14366e-23, cumulative = -7.64076e-24
ExecutionTime = 118.25 s  ClockTime = 119 s

Time = 0.0004

Courant Number mean: 0.0045062 max: 0.0914618
DILUPBiCGStab:  Solving for Ux, Initial residual = 0.0219732, Final residual = 3.55195e-06, No Iterations 5
DILUPBiCGStab:  Solving for Uy, Initial residual = 0.0338792, Final residual = 2.95352e-06, No Iterations 5
DILUPBiCGStab:  Solving for Uz, Initial residual = 0.0581843, Final residual = 5.15182e-06, No Iterations 5
linear solve U 405.792 [ms]
piso setup 69.559 [ms]
 correctNonOrthogonal 
 setRef 
 startSolve 
PETSc-cg:  Solving for p, Initial residual = 0.0217488, Final residual = 9.91763e-05, No Iterations 612
linear solve p 4206.27 [ms]
piso step 4235.91 [ms]
 contErrors 
time step continuity errors : sum local = 6.76628e-10, global = 1.95134e-22, cumulative = 1.87494e-22
piso setup 68.016 [ms]
 correctNonOrthogonal 
 setRef 
 startSolve 
PETSc-cg:  Solving for p, Initial residual = 0.0192363, Final residual = 9.95688e-05, No Iterations 606
linear solve p 4171.22 [ms]
piso step 4199.46 [ms]
 contErrors 
time step continuity errors : sum local = 6.74197e-10, global = 1.6282e-22, cumulative = 3.50314e-22
ExecutionTime = 127.31 s  ClockTime = 128 s

Time = 0.00045

Courant Number mean: 0.00478564 max: 0.0920366
DILUPBiCGStab:  Solving for Ux, Initial residual = 0.0193071, Final residual = 2.96521e-06, No Iterations 5
DILUPBiCGStab:  Solving for Uy, Initial residual = 0.0293953, Final residual = 2.35145e-06, No Iterations 5
DILUPBiCGStab:  Solving for Uz, Initial residual = 0.0517684, Final residual = 4.16204e-06, No Iterations 5
linear solve U 406.48 [ms]
piso setup 71.766 [ms]
 correctNonOrthogonal 
 setRef 
 startSolve 
PETSc-cg:  Solving for p, Initial residual = 0.0181879, Final residual = 9.91836e-05, No Iterations 602
linear solve p 4142.36 [ms]
piso step 4172.02 [ms]
 contErrors 
time step continuity errors : sum local = 6.87289e-10, global = 1.57759e-23, cumulative = 3.6609e-22
piso setup 69.204 [ms]
 correctNonOrthogonal 
 setRef 
 startSolve 
PETSc-cg:  Solving for p, Initial residual = 0.0162118, Final residual = 9.89242e-05, No Iterations 595
linear solve p 4104.08 [ms]
piso step 4132.73 [ms]
 contErrors 
time step continuity errors : sum local = 6.75264e-10, global = -3.16319e-23, cumulative = 3.34458e-22
ExecutionTime = 136.25 s  ClockTime = 137 s

Time = 0.0005

Courant Number mean: 0.00504288 max: 0.0925024
DILUPBiCGStab:  Solving for Ux, Initial residual = 0.0172229, Final residual = 2.50006e-06, No Iterations 5
DILUPBiCGStab:  Solving for Uy, Initial residual = 0.0259497, Final residual = 1.91582e-06, No Iterations 5
DILUPBiCGStab:  Solving for Uz, Initial residual = 0.0464959, Final residual = 3.5099e-06, No Iterations 5
linear solve U 404.77 [ms]
piso setup 69.42 [ms]
 correctNonOrthogonal 
 setRef 
 startSolve 
PETSc-cg:  Solving for p, Initial residual = 0.0152865, Final residual = 9.88053e-05, No Iterations 593
linear solve p 4088.73 [ms]
piso step 4117.97 [ms]
 contErrors 
time step continuity errors : sum local = 6.79831e-10, global = 1.42316e-22, cumulative = 4.76774e-22
piso setup 69.514 [ms]
 correctNonOrthogonal 
 setRef 
 startSolve 
PETSc-cg:  Solving for p, Initial residual = 0.0137129, Final residual = 9.69239e-05, No Iterations 588
linear solve p 4047.91 [ms]
piso step 4076.74 [ms]
 contErrors 
time step continuity errors : sum local = 6.62895e-10, global = 1.93061e-22, cumulative = 6.69836e-22
ExecutionTime = 145.06 s  ClockTime = 146 s

Time = 0.00055

Courant Number mean: 0.0052811 max: 0.0928898
DILUPBiCGStab:  Solving for Ux, Initial residual = 0.0155462, Final residual = 2.13411e-06, No Iterations 5
DILUPBiCGStab:  Solving for Uy, Initial residual = 0.0232132, Final residual = 1.63409e-06, No Iterations 5
DILUPBiCGStab:  Solving for Uz, Initial residual = 0.0422299, Final residual = 3.11004e-06, No Iterations 5
linear solve U 401.882 [ms]
piso setup 70.317 [ms]
 correctNonOrthogonal 
 setRef 
 startSolve 
PETSc-cg:  Solving for p, Initial residual = 0.0133056, Final residual = 9.8142e-05, No Iterations 586
linear solve p 4027.12 [ms]
piso step 4056.99 [ms]
 contErrors 
time step continuity errors : sum local = 6.81062e-10, global = -3.00524e-22, cumulative = 3.69312e-22
piso setup 66.162 [ms]
 correctNonOrthogonal 
 setRef 
 startSolve 
PETSc-cg:  Solving for p, Initial residual = 0.0119697, Final residual = 9.91399e-05, No Iterations 580
linear solve p 3985.97 [ms]
piso step 4013.96 [ms]
 contErrors 
time step continuity errors : sum local = 6.80947e-10, global = -3.28701e-22, cumulative = 4.0611e-23
ExecutionTime = 153.77 s  ClockTime = 155 s

Time = 0.0006

Courant Number mean: 0.00550384 max: 0.0932185
DILUPBiCGStab:  Solving for Ux, Initial residual = 0.0141659, Final residual = 1.84435e-06, No Iterations 5
DILUPBiCGStab:  Solving for Uy, Initial residual = 0.0209907, Final residual = 1.4219e-06, No Iterations 5
DILUPBiCGStab:  Solving for Uz, Initial residual = 0.0386239, Final residual = 2.80213e-06, No Iterations 5
linear solve U 405.467 [ms]
piso setup 69.319 [ms]
 correctNonOrthogonal 
 setRef 
 startSolve 
PETSc-cg:  Solving for p, Initial residual = 0.0117451, Final residual = 9.82108e-05, No Iterations 581
linear solve p 3992.52 [ms]
piso step 4020.45 [ms]
 contErrors 
time step continuity errors : sum local = 6.79791e-10, global = -2.71491e-22, cumulative = -2.3088e-22
piso setup 68.901 [ms]
 correctNonOrthogonal 
 setRef 
 startSolve 
PETSc-cg:  Solving for p, Initial residual = 0.0106011, Final residual = 9.81882e-05, No Iterations 576
linear solve p 3962.31 [ms]
piso step 3991.22 [ms]
 contErrors 
time step continuity errors : sum local = 6.75831e-10, global = -4.68549e-22, cumulative = -6.99429e-22
ExecutionTime = 162.41 s  ClockTime = 163 s

Time = 0.00065

Courant Number mean: 0.00571303 max: 0.093502
DILUPBiCGStab:  Solving for Ux, Initial residual = 0.0130114, Final residual = 1.61166e-06, No Iterations 5
DILUPBiCGStab:  Solving for Uy, Initial residual = 0.0191479, Final residual = 1.2597e-06, No Iterations 5
DILUPBiCGStab:  Solving for Uz, Initial residual = 0.0355947, Final residual = 2.59388e-06, No Iterations 5
linear solve U 401.588 [ms]
piso setup 69.658 [ms]
 correctNonOrthogonal 
 setRef 
 startSolve 
PETSc-cg:  Solving for p, Initial residual = 0.010454, Final residual = 9.61096e-05, No Iterations 577
linear solve p 3967.05 [ms]
piso step 3996.45 [ms]
 contErrors 
time step continuity errors : sum local = 6.69211e-10, global = 4.76404e-24, cumulative = -6.94665e-22
piso setup 66.407 [ms]
 correctNonOrthogonal 
 setRef 
 startSolve 
PETSc-cg:  Solving for p, Initial residual = 0.00945972, Final residual = 9.73573e-05, No Iterations 571
linear solve p 3937.86 [ms]
piso step 3965.83 [ms]
 contErrors 
time step continuity errors : sum local = 6.72674e-10, global = -2.65422e-22, cumulative = -9.60086e-22
ExecutionTime = 171 s  ClockTime = 172 s

Time = 0.0007

Courant Number mean: 0.00591026 max: 0.0937498
DILUPBiCGStab:  Solving for Ux, Initial residual = 0.0120286, Final residual = 1.42284e-06, No Iterations 5
DILUPBiCGStab:  Solving for Uy, Initial residual = 0.0175965, Final residual = 1.13045e-06, No Iterations 5
DILUPBiCGStab:  Solving for Uz, Initial residual = 0.0329764, Final residual = 2.41064e-06, No Iterations 5
linear solve U 404.957 [ms]
piso setup 69.543 [ms]
 correctNonOrthogonal 
 setRef 
 startSolve 
PETSc-cg:  Solving for p, Initial residual = 0.00942585, Final residual = 9.85126e-05, No Iterations 572
linear solve p 3939.86 [ms]
piso step 3966.48 [ms]
 contErrors 
time step continuity errors : sum local = 6.84669e-10, global = -1.6689e-22, cumulative = -1.12698e-21
piso setup 67.25 [ms]
 correctNonOrthogonal 
 setRef 
 startSolve 
PETSc-cg:  Solving for p, Initial residual = 0.00854311, Final residual = 9.82771e-05, No Iterations 566
linear solve p 3890.69 [ms]
piso step 3918.68 [ms]
 contErrors 
time step continuity errors : sum local = 6.79924e-10, global = -3.83114e-23, cumulative = -1.16529e-21
ExecutionTime = 179.5 s  ClockTime = 181 s

Time = 0.00075

Courant Number mean: 0.00609754 max: 0.0939687
DILUPBiCGStab:  Solving for Ux, Initial residual = 0.011182, Final residual = 1.26756e-06, No Iterations 5
DILUPBiCGStab:  Solving for Uy, Initial residual = 0.0162717, Final residual = 1.02605e-06, No Iterations 5
DILUPBiCGStab:  Solving for Uz, Initial residual = 0.0307207, Final residual = 2.27519e-06, No Iterations 5
linear solve U 400.919 [ms]
piso setup 68.165 [ms]
 correctNonOrthogonal 
 setRef 
 startSolve 
PETSc-cg:  Solving for p, Initial residual = 0.0085842, Final residual = 9.93983e-05, No Iterations 568
linear solve p 3906.84 [ms]
piso step 3936.96 [ms]
 contErrors 
time step continuity errors : sum local = 6.92937e-10, global = 7.64211e-23, cumulative = -1.08887e-21
piso setup 65.909 [ms]
 correctNonOrthogonal 
 setRef 
 startSolve 
PETSc-cg:  Solving for p, Initial residual = 0.00779467, Final residual = 9.94097e-05, No Iterations 562
linear solve p 3871.36 [ms]
piso step 3898.95 [ms]
 contErrors 
time step continuity errors : sum local = 6.8928e-10, global = 1.47419e-23, cumulative = -1.07412e-21
ExecutionTime = 187.96 s  ClockTime = 189 s

Time = 0.0008

Courant Number mean: 0.0062753 max: 0.094164
DILUPBiCGStab:  Solving for Ux, Initial residual = 0.0104455, Final residual = 1.13856e-06, No Iterations 5
DILUPBiCGStab:  Solving for Uy, Initial residual = 0.015128, Final residual = 9.4005e-07, No Iterations 5
DILUPBiCGStab:  Solving for Uz, Initial residual = 0.0287358, Final residual = 2.14307e-06, No Iterations 5
linear solve U 400.931 [ms]
piso setup 69.017 [ms]
 correctNonOrthogonal 
 setRef 
 startSolve 
PETSc-cg:  Solving for p, Initial residual = 0.00783633, Final residual = 9.77334e-05, No Iterations 565
linear solve p 3889.03 [ms]
piso step 3917.14 [ms]
 contErrors 
time step continuity errors : sum local = 6.81782e-10, global = -3.4755e-22, cumulative = -1.42167e-21
piso setup 70.6 [ms]
 correctNonOrthogonal 
 setRef 
 startSolve 
PETSc-cg:  Solving for p, Initial residual = 0.00712144, Final residual = 9.67142e-05, No Iterations 559
linear solve p 3849.68 [ms]
piso step 3876.48 [ms]
 contErrors 
time step continuity errors : sum local = 6.72305e-10, global = 1.2524e-22, cumulative = -1.29643e-21
ExecutionTime = 196.39 s  ClockTime = 198 s

Time = 0.00085

Courant Number mean: 0.00644506 max: 0.0943396
DILUPBiCGStab:  Solving for Ux, Initial residual = 0.00979762, Final residual = 1.02999e-06, No Iterations 5
DILUPBiCGStab:  Solving for Uy, Initial residual = 0.0141301, Final residual = 8.67902e-07, No Iterations 5
DILUPBiCGStab:  Solving for Uz, Initial residual = 0.0269924, Final residual = 2.03492e-06, No Iterations 5
linear solve U 406.643 [ms]
piso setup 69.388 [ms]
 correctNonOrthogonal 
 setRef 
 startSolve 
PETSc-cg:  Solving for p, Initial residual = 0.0071981, Final residual = 9.89975e-05, No Iterations 560
linear solve p 3849.97 [ms]
piso step 3880.38 [ms]
 contErrors 
time step continuity errors : sum local = 6.92031e-10, global = -1.17594e-22, cumulative = -1.41403e-21
piso setup 66.062 [ms]
 correctNonOrthogonal 
 setRef 
 startSolve 
PETSc-cg:  Solving for p, Initial residual = 0.00655606, Final residual = 9.91028e-05, No Iterations 555
linear solve p 3817.2 [ms]
piso step 3845.07 [ms]
 contErrors 
time step continuity errors : sum local = 6.8971e-10, global = -1.9691e-22, cumulative = -1.61094e-21
ExecutionTime = 204.73 s  ClockTime = 206 s

Time = 0.0009

Courant Number mean: 0.00660761 max: 0.0944985
DILUPBiCGStab:  Solving for Ux, Initial residual = 0.00922459, Final residual = 9.3778e-07, No Iterations 5
DILUPBiCGStab:  Solving for Uy, Initial residual = 0.0132524, Final residual = 8.06393e-07, No Iterations 5
DILUPBiCGStab:  Solving for Uz, Initial residual = 0.0254366, Final residual = 1.92357e-06, No Iterations 5
linear solve U 402.074 [ms]
piso setup 68.279 [ms]
 correctNonOrthogonal 
 setRef 
 startSolve 
PETSc-cg:  Solving for p, Initial residual = 0.00670718, Final residual = 9.84947e-05, No Iterations 558
linear solve p 3842.68 [ms]
piso step 3869.74 [ms]
 contErrors 
time step continuity errors : sum local = 6.88785e-10, global = 2.79781e-22, cumulative = -1.33116e-21
piso setup 67.602 [ms]
 correctNonOrthogonal 
 setRef 
 startSolve 
PETSc-cg:  Solving for p, Initial residual = 0.00611006, Final residual = 9.93751e-05, No Iterations 550
linear solve p 3784.94 [ms]
piso step 3812.8 [ms]
 contErrors 
time step continuity errors : sum local = 6.92415e-10, global = 2.77183e-23, cumulative = -1.30344e-21
ExecutionTime = 213.03 s  ClockTime = 214 s

Time = 0.00095

Courant Number mean: 0.00676316 max: 0.0946434
DILUPBiCGStab:  Solving for Ux, Initial residual = 0.00871227, Final residual = 8.58856e-07, No Iterations 5
DILUPBiCGStab:  Solving for Uy, Initial residual = 0.012474, Final residual = 7.53418e-07, No Iterations 5
DILUPBiCGStab:  Solving for Uz, Initial residual = 0.0240506, Final residual = 1.82579e-06, No Iterations 5
linear solve U 405.624 [ms]
piso setup 68.187 [ms]
 correctNonOrthogonal 
 setRef 
 startSolve 
PETSc-cg:  Solving for p, Initial residual = 0.00619743, Final residual = 9.90295e-05, No Iterations 553
linear solve p 3808.32 [ms]
piso step 3836.4 [ms]
 contErrors 
time step continuity errors : sum local = 6.93901e-10, global = -1.80256e-22, cumulative = -1.4837e-21
piso setup 68.827 [ms]
 correctNonOrthogonal 
 setRef 
 startSolve 
PETSc-cg:  Solving for p, Initial residual = 0.00564851, Final residual = 9.67516e-05, No Iterations 547
linear solve p 3787.73 [ms]
piso step 3816.53 [ms]
 contErrors 
time step continuity errors : sum local = 6.76076e-10, global = -1.54122e-22, cumulative = -1.63782e-21
ExecutionTime = 221.32 s  ClockTime = 223 s

Time = 0.001

Courant Number mean: 0.00691274 max: 0.0947761
DILUPBiCGStab:  Solving for Ux, Initial residual = 0.00825341, Final residual = 7.90736e-07, No Iterations 5
DILUPBiCGStab:  Solving for Uy, Initial residual = 0.0117794, Final residual = 7.07253e-07, No Iterations 5
DILUPBiCGStab:  Solving for Uz, Initial residual = 0.0227985, Final residual = 1.72561e-06, No Iterations 5
linear solve U 405.565 [ms]
piso setup 68.813 [ms]
 correctNonOrthogonal 
 setRef 
 startSolve 
PETSc-cg:  Solving for p, Initial residual = 0.00580584, Final residual = 9.7984e-05, No Iterations 552
linear solve p 3794.2 [ms]
piso step 3821.87 [ms]
 contErrors 
time step continuity errors : sum local = 6.86958e-10, global = 3.09143e-22, cumulative = -1.32867e-21
piso setup 67.065 [ms]
 correctNonOrthogonal 
 setRef 
 startSolve 
PETSc-cg:  Solving for p, Initial residual = 0.00529226, Final residual = 9.89502e-05, No Iterations 544
linear solve p 3746.39 [ms]
piso step 3773.48 [ms]
 contErrors 
time step continuity errors : sum local = 6.91509e-10, global = -1.65193e-22, cumulative = -1.49387e-21
ExecutionTime = 229.54 s  ClockTime = 231 s

End

Finalizing PETSc
Finalising parallel run
================================================================================
hash: ade1536b488d70ddd7eccc165cd1161b
/*---------------------------------------------------------------------------*\
| =========                 |                                                 |
| \\      /  F ield         | OpenFOAM: The Open Source CFD Toolbox           |
|  \\    /   O peration     | Version:  v2106                                 |
|   \\  /    A nd           | Website:  www.openfoam.com                      |
|    \\/     M anipulation  |                                                 |
\*---------------------------------------------------------------------------*/
Build  : f815a12bba-20210902 OPENFOAM=2106
Arch   : "LSB;label=32;scalar=64"
Exec   : icoFoam -parallel
Date   : Oct 07 2022
Time   : 12:07:44
Host   : nla-gpu2.ianm.kit.edu
PID    : 1653514
I/O    : uncollated
Case   : /home/greole/data/code/ogl_labbook/lidDrivenCavity/single_node/mesh/250/matrix_solver/CG_NoPrecond_PETSC_Default/mpiRank_of/32/base
nProcs : 32
Hosts  :
(
    (nla-gpu2.ianm.kit.edu 32)
)
Pstream initialized with:
    floatTransfer      : 0
    nProcsSimpleSum    : 0
    commsType          : nonBlocking
    polling iterations : 0
trapFpe: Floating point exception trapping enabled (FOAM_SIGFPE).
fileModificationChecking : Monitoring run-time modified files using timeStampMaster (fileModificationSkew 5, maxFileModificationPolls 20)
allowSystemOperations : Allowing user-supplied system call operations

// * * * * * * * * * * * * * * * * * * * * * * * * * * * * * * * * * * * * * //
Create time

Create mesh for time = 0


PISO: Operating solver in PISO mode

Reading transportProperties

Reading field p

Reading field U

Reading/calculating face flux field phi


Starting time loop

Time = 4e-05

Courant Number mean: 0 max: 0
DILUPBiCGStab:  Solving for Ux, Initial residual = 1, Final residual = 0.000308425, No Iterations 5
DILUPBiCGStab:  Solving for Uy:  solution singularity
DILUPBiCGStab:  Solving for Uz:  solution singularity
linear solve U 478.639 [ms]
piso setup 188.092 [ms]
 correctNonOrthogonal 
 setRef 
 startSolve 
Initializing PETSc
PETSc-cg:  Solving for p, Initial residual = 1, Final residual = 9.97596e-05, No Iterations 2024
linear solve p 31364.2 [ms]
piso step 31444.2 [ms]
 contErrors 
time step continuity errors : sum local = 4.79497e-10, global = -2.30169e-22, cumulative = -2.30169e-22
piso setup 179.24 [ms]
 correctNonOrthogonal 
 setRef 
 startSolve 
PETSc-cg:  Solving for p, Initial residual = 0.670098, Final residual = 9.93748e-05, No Iterations 1990
linear solve p 30280.2 [ms]
piso step 30354.1 [ms]
 contErrors 
time step continuity errors : sum local = 6.73794e-10, global = -3.29125e-23, cumulative = -2.63081e-22
ExecutionTime = 65.55 s  ClockTime = 66 s

Time = 8e-05

Courant Number mean: 0.00142678 max: 0.0690571
DILUPBiCGStab:  Solving for Ux, Initial residual = 0.180318, Final residual = 0.000194586, No Iterations 5
DILUPBiCGStab:  Solving for Uy, Initial residual = 0.336114, Final residual = 0.000175745, No Iterations 5
DILUPBiCGStab:  Solving for Uz, Initial residual = 0.993925, Final residual = 0.000713631, No Iterations 5
linear solve U 872.268 [ms]
piso setup 166.036 [ms]
 correctNonOrthogonal 
 setRef 
 startSolve 
PETSc-cg:  Solving for p, Initial residual = 0.557769, Final residual = 9.82229e-05, No Iterations 1960
linear solve p 29810.3 [ms]
piso step 29879.4 [ms]
 contErrors 
time step continuity errors : sum local = 6.6318e-10, global = -3.41228e-22, cumulative = -6.04309e-22
piso setup 147.416 [ms]
 correctNonOrthogonal 
 setRef 
 startSolve 
PETSc-cg:  Solving for p, Initial residual = 0.474204, Final residual = 9.67733e-05, No Iterations 1955
linear solve p 29729.2 [ms]
piso step 29789.7 [ms]
 contErrors 
time step continuity errors : sum local = 6.70754e-10, global = 7.56658e-23, cumulative = -5.28643e-22
ExecutionTime = 126.28 s  ClockTime = 127 s

Time = 0.00012

Courant Number mean: 0.00219263 max: 0.0832409
DILUPBiCGStab:  Solving for Ux, Initial residual = 0.0755123, Final residual = 6.31659e-05, No Iterations 5
DILUPBiCGStab:  Solving for Uy, Initial residual = 0.137005, Final residual = 4.35382e-05, No Iterations 5
DILUPBiCGStab:  Solving for Uz, Initial residual = 0.101226, Final residual = 9.32613e-05, No Iterations 5
linear solve U 871.433 [ms]
piso setup 152.236 [ms]
 correctNonOrthogonal 
 setRef 
 startSolve 
PETSc-cg:  Solving for p, Initial residual = 0.343023, Final residual = 9.86265e-05, No Iterations 1910
linear solve p 29049.8 [ms]
piso step 29111.4 [ms]
 contErrors 
time step continuity errors : sum local = 4.90346e-10, global = -2.47548e-22, cumulative = -7.76191e-22
piso setup 142.755 [ms]
 correctNonOrthogonal 
 setRef 
 startSolve 
PETSc-cg:  Solving for p, Initial residual = 0.291288, Final residual = 9.82179e-05, No Iterations 1903
linear solve p 28945.9 [ms]
piso step 29004.9 [ms]
 contErrors 
time step continuity errors : sum local = 4.80232e-10, global = 1.26774e-22, cumulative = -6.49418e-22
ExecutionTime = 185.48 s  ClockTime = 187 s

Time = 0.00016

Courant Number mean: 0.00272143 max: 0.0875666
DILUPBiCGStab:  Solving for Ux, Initial residual = 0.0486533, Final residual = 3.08216e-05, No Iterations 5
DILUPBiCGStab:  Solving for Uy, Initial residual = 0.0859787, Final residual = 2.4595e-05, No Iterations 5
DILUPBiCGStab:  Solving for Uz, Initial residual = 0.111109, Final residual = 6.6914e-05, No Iterations 5
linear solve U 864.372 [ms]
piso setup 152.072 [ms]
 correctNonOrthogonal 
 setRef 
 startSolve 
PETSc-cg:  Solving for p, Initial residual = 0.163776, Final residual = 9.83804e-05, No Iterations 1872
linear solve p 28470.8 [ms]
piso step 28533.5 [ms]
 contErrors 
time step continuity errors : sum local = 4.5277e-10, global = -2.60886e-22, cumulative = -9.10304e-22
piso setup 142.559 [ms]
 correctNonOrthogonal 
 setRef 
 startSolve 
PETSc-cg:  Solving for p, Initial residual = 0.1342, Final residual = 9.81172e-05, No Iterations 1863
linear solve p 28391.4 [ms]
piso step 28451.2 [ms]
 contErrors 
time step continuity errors : sum local = 4.55894e-10, global = -8.66685e-23, cumulative = -9.96972e-22
ExecutionTime = 243.57 s  ClockTime = 246 s

Time = 0.0002

Courant Number mean: 0.00314451 max: 0.0896317
DILUPBiCGStab:  Solving for Ux, Initial residual = 0.036503, Final residual = 1.48441e-05, No Iterations 5
DILUPBiCGStab:  Solving for Uy, Initial residual = 0.0622278, Final residual = 1.81109e-05, No Iterations 5
DILUPBiCGStab:  Solving for Uz, Initial residual = 0.0908575, Final residual = 3.64734e-05, No Iterations 5
linear solve U 878.412 [ms]
piso setup 151.302 [ms]
 correctNonOrthogonal 
 setRef 
 startSolve 
PETSc-cg:  Solving for p, Initial residual = 0.0864162, Final residual = 9.72471e-05, No Iterations 894
linear solve p 13635.2 [ms]
piso step 13695.9 [ms]
 contErrors 
[...]
time step continuity errors : sum local = 2.54183e-10, global = -3.40229e-23, cumulative = 2.378e-22
piso setup 601.422 [ms]
 correctNonOrthogonal 
 setRef 
 startSolve 
PETSc-cg:  Solving for p, Initial residual = 0.504392, Final residual = 9.91937e-05, No Iterations 3126
linear solve p 210679 [ms]
piso step 210913 [ms]
 contErrors 
time step continuity errors : sum local = 2.48546e-10, global = -3.07355e-23, cumulative = 2.07064e-22
ExecutionTime = 1312.69 s  ClockTime = 1320 s

Time = 0.0001

Courant Number mean: 0.00220759 max: 0.090316
DILUPBiCGStab:  Solving for Ux, Initial residual = 0.0437032, Final residual = 0.000117706, No Iterations 5
DILUPBiCGStab:  Solving for Uy, Initial residual = 0.0872305, Final residual = 0.000107908, No Iterations 5
DILUPBiCGStab:  Solving for Uz, Initial residual = 0.134067, Final residual = 0.000387159, No Iterations 5
linear solve U 3683.77 [ms]
piso setup 606.439 [ms]
 correctNonOrthogonal 
 setRef 
 startSolve 
PETSc-cg:  Solving for p, Initial residual = 0.326172, Final residual = 9.97911e-05, No Iterations 1487
linear solve p 100351 [ms]
piso step 100582 [ms]
 contErrors 
time step continuity errors : sum local = 2.3169e-10, global = 9.43568e-24, cumulative = 2.165e-22
piso setup 601.258 [ms]
 correctNonOrthogonal 
 setRef 
 startSolve 
PETSc-cg:  Solving for p, Initial residual = 0.271546, Final residual = 9.85808e-05, No Iterations 1467
linear solve p 99016.2 [ms]
piso step 99247.5 [ms]
 contErrors 
time step continuity errors : sum local = 2.20296e-10, global = 1.11713e-22, cumulative = 3.28213e-22
ExecutionTime = 1517.55 s  ClockTime = 1526 s

Time = 0.000125

Courant Number mean: 0.00255333 max: 0.091904
DILUPBiCGStab:  Solving for Ux, Initial residual = 0.0332648, Final residual = 7.29166e-05, No Iterations 5
DILUPBiCGStab:  Solving for Uy, Initial residual = 0.0630336, Final residual = 6.55547e-05, No Iterations 5
DILUPBiCGStab:  Solving for Uz, Initial residual = 0.0922799, Final residual = 0.000256897, No Iterations 5
linear solve U 3689.58 [ms]
piso setup 610.672 [ms]
 correctNonOrthogonal 
 setRef 
 startSolve 
PETSc-cg:  Solving for p, Initial residual = 0.218998, Final residual = 9.90185e-05, No Iterations 1437
linear solve p 97038.5 [ms]
piso step 97276.2 [ms]
 contErrors 
time step continuity errors : sum local = 1.92495e-10, global = -7.40663e-23, cumulative = 2.54147e-22
piso setup 596.765 [ms]
 correctNonOrthogonal 
 setRef 
 startSolve 
PETSc-cg:  Solving for p, Initial residual = 0.184874, Final residual = 9.81575e-05, No Iterations 1434
linear solve p 96869.3 [ms]
piso step 97102.5 [ms]
 contErrors 
time step continuity errors : sum local = 1.8773e-10, global = -6.24237e-23, cumulative = 1.91723e-22
ExecutionTime = 1716.96 s  ClockTime = 1726 s

Time = 0.00015

Courant Number mean: 0.00284853 max: 0.0928884
DILUPBiCGStab:  Solving for Ux, Initial residual = 0.0270568, Final residual = 5.00341e-05, No Iterations 5
DILUPBiCGStab:  Solving for Uy, Initial residual = 0.0495079, Final residual = 3.20568e-05, No Iterations 5
DILUPBiCGStab:  Solving for Uz, Initial residual = 0.0804528, Final residual = 0.000162312, No Iterations 5
linear solve U 3683.05 [ms]
piso setup 613.142 [ms]
 correctNonOrthogonal 
 setRef 
 startSolve 
PETSc-cg:  Solving for p, Initial residual = 0.131867, Final residual = 9.74401e-05, No Iterations 1451
linear solve p 97956.9 [ms]
piso step 98187.7 [ms]
 contErrors 
time step continuity errors : sum local = 1.95792e-10, global = -4.7433e-23, cumulative = 1.4429e-22
piso setup 598.848 [ms]
 correctNonOrthogonal 
 setRef 
 startSolve 
PETSc-cg:  Solving for p, Initial residual = 0.109336, Final residual = 9.867e-05, No Iterations 1375
linear solve p 92810.8 [ms]
piso step 93044.4 [ms]
 contErrors 
time step continuity errors : sum local = 1.89005e-10, global = 2.97423e-23, cumulative = 1.74033e-22
ExecutionTime = 1913.24 s  ClockTime = 1924 s

Time = 0.000175

Courant Number mean: 0.00310899 max: 0.0935743
DILUPBiCGStab:  Solving for Ux, Initial residual = 0.0228913, Final residual = 3.66687e-05, No Iterations 5
DILUPBiCGStab:  Solving for Uy, Initial residual = 0.0407774, Final residual = 2.86052e-05, No Iterations 5
DILUPBiCGStab:  Solving for Uz, Initial residual = 0.0683236, Final residual = 0.000108483, No Iterations 5
linear solve U 3680.48 [ms]
piso setup 611.417 [ms]
 correctNonOrthogonal 
 setRef 
 startSolve 
PETSc-cg:  Solving for p, Initial residual = 0.0907172, Final residual = 9.88532e-05, No Iterations 1427
linear solve p 96371.1 [ms]
piso step 96602.6 [ms]
 contErrors 
time step continuity errors : sum local = 1.84446e-10, global = 2.564e-23, cumulative = 1.99673e-22
piso setup 596.072 [ms]
 correctNonOrthogonal 
 setRef 
 startSolve 
PETSc-cg:  Solving for p, Initial residual = 0.0760156, Final residual = 9.83514e-05, No Iterations 1380
linear solve p 93212.8 [ms]
piso step 93450.4 [ms]
 contErrors 
time step continuity errors : sum local = 1.77587e-10, global = 5.28247e-23, cumulative = 2.52497e-22
ExecutionTime = 2108.35 s  ClockTime = 2120 s

Time = 0.0002

Courant Number mean: 0.00334351 max: 0.0940885
DILUPBiCGStab:  Solving for Ux, Initial residual = 0.0199009, Final residual = 2.8084e-05, No Iterations 5
DILUPBiCGStab:  Solving for Uy, Initial residual = 0.0346169, Final residual = 2.08578e-05, No Iterations 5
DILUPBiCGStab:  Solving for Uz, Initial residual = 0.061087, Final residual = 8.09709e-05, No Iterations 5
linear solve U 3682.7 [ms]
piso setup 611.396 [ms]
 correctNonOrthogonal 
 setRef 
 startSolve 
PETSc-cg:  Solving for p, Initial residual = 0.0587773, Final residual = 9.95221e-05, No Iterations 2976
linear solve p 200679 [ms]
piso step 200909 [ms]
 contErrors 
time step continuity errors : sum local = 1.76641e-10, global = -1.08236e-23, cumulative = 2.41674e-22
piso setup 597.873 [ms]
 correctNonOrthogonal 
 setRef 
 startSolve 
PETSc-cg:  Solving for p, Initial residual = 0.0504995, Final residual = 9.87964e-05, No Iterations 1441
linear solve p 97283.6 [ms]
piso step 97519.1 [ms]
 contErrors 
time step continuity errors : sum local = 1.90717e-10, global = -5.5699e-23, cumulative = 1.85975e-22
ExecutionTime = 2411.28 s  ClockTime = 2424 s

Time = 0.000225

Courant Number mean: 0.00355785 max: 0.094492
DILUPBiCGStab:  Solving for Ux, Initial residual = 0.0176117, Final residual = 2.19627e-05, No Iterations 5
DILUPBiCGStab:  Solving for Uy, Initial residual = 0.0301157, Final residual = 1.90959e-05, No Iterations 5
DILUPBiCGStab:  Solving for Uz, Initial residual = 0.0557599, Final residual = 8.3627e-05, No Iterations 5
linear solve U 3680.52 [ms]
piso setup 610.647 [ms]
 correctNonOrthogonal 
 setRef 
 startSolve 
PETSc-cg:  Solving for p, Initial residual = 0.0437157, Final residual = 9.94131e-05, No Iterations 2958
linear solve p 199439 [ms]
piso step 199670 [ms]
 contErrors 
time step continuity errors : sum local = 1.74988e-10, global = -6.46573e-23, cumulative = 1.21318e-22
piso setup 595.756 [ms]
 correctNonOrthogonal 
 setRef 
 startSolve 
PETSc-cg:  Solving for p, Initial residual = 0.0379187, Final residual = 9.96186e-05, No Iterations 2943
linear solve p 198376 [ms]
piso step 198612 [ms]
 contErrors 
time step continuity errors : sum local = 1.75402e-10, global = -8.12907e-23, cumulative = 4.00269e-23
ExecutionTime = 2813.56 s  ClockTime = 2829 s

Time = 0.00025

Courant Number mean: 0.00375594 max: 0.0948197
DILUPBiCGStab:  Solving for Ux, Initial residual = 0.0158256, Final residual = 1.76788e-05, No Iterations 5
DILUPBiCGStab:  Solving for Uy, Initial residual = 0.0265961, Final residual = 1.60166e-05, No Iterations 5
DILUPBiCGStab:  Solving for Uz, Initial residual = 0.0473529, Final residual = 5.31135e-05, No Iterations 5
linear solve U 3685.01 [ms]
piso setup 609.14 [ms]
 correctNonOrthogonal 
 setRef 
 startSolve 
PETSc-cg:  Solving for p, Initial residual = 0.0320096, Final residual = 9.96635e-05, No Iterations 1274
linear solve p 86033 [ms]
piso step 86264 [ms]
 contErrors 
time step continuity errors : sum local = 1.88657e-10, global = -5.46857e-23, cumulative = -1.46588e-23
piso setup 599.949 [ms]
 correctNonOrthogonal 
 setRef 
 startSolve 
PETSc-cg:  Solving for p, Initial residual = 0.0285183, Final residual = 9.95522e-05, No Iterations 1241
linear solve p 83769.9 [ms]
piso step 84005.4 [ms]
 contErrors 
time step continuity errors : sum local = 1.80354e-10, global = 5.7405e-24, cumulative = -8.91828e-24
ExecutionTime = 2988.99 s  ClockTime = 3005 s

Time = 0.000275

Courant Number mean: 0.00394045 max: 0.0950927
DILUPBiCGStab:  Solving for Ux, Initial residual = 0.0143678, Final residual = 1.45315e-05, No Iterations 5
DILUPBiCGStab:  Solving for Uy, Initial residual = 0.0238367, Final residual = 1.44842e-05, No Iterations 5
DILUPBiCGStab:  Solving for Uz, Initial residual = 0.0438234, Final residual = 4.62139e-05, No Iterations 5
linear solve U 3684.98 [ms]
piso setup 610.177 [ms]
 correctNonOrthogonal 
 setRef 
 startSolve 
PETSc-cg:  Solving for p, Initial residual = 0.0258155, Final residual = 9.99767e-05, No Iterations 1312
linear solve p 88543.3 [ms]
piso step 88774 [ms]
 contErrors 
time step continuity errors : sum local = 1.825e-10, global = -6.81015e-23, cumulative = -7.70198e-23
piso setup 595.562 [ms]
 correctNonOrthogonal 
 setRef 
 startSolve 
PETSc-cg:  Solving for p, Initial residual = 0.0233874, Final residual = 9.96593e-05, No Iterations 1254
linear solve p 84673.9 [ms]
piso step 84910.7 [ms]
 contErrors 
time step continuity errors : sum local = 1.74762e-10, global = 9.96072e-23, cumulative = 2.25874e-23
ExecutionTime = 3167.82 s  ClockTime = 3185 s

Time = 0.0003

Courant Number mean: 0.00411347 max: 0.0953247
DILUPBiCGStab:  Solving for Ux, Initial residual = 0.0131727, Final residual = 1.2215e-05, No Iterations 5
DILUPBiCGStab:  Solving for Uy, Initial residual = 0.0215646, Final residual = 1.27283e-05, No Iterations 5
DILUPBiCGStab:  Solving for Uz, Initial residual = 0.0410088, Final residual = 4.17652e-05, No Iterations 5
linear solve U 3682.54 [ms]
piso setup 609.691 [ms]
 correctNonOrthogonal 
 setRef 
 startSolve 
PETSc-cg:  Solving for p, Initial residual = 0.0206832, Final residual = 9.89746e-05, No Iterations 1435
linear solve p 96842.8 [ms]
piso step 97073.3 [ms]
 contErrors 
time step continuity errors : sum local = 1.90277e-10, global = -8.63396e-23, cumulative = -6.37521e-23
piso setup 597.762 [ms]
 correctNonOrthogonal 
 setRef 
 startSolve 
PETSc-cg:  Solving for p, Initial residual = 0.0191765, Final residual = 9.91572e-05, No Iterations 1347
linear solve p 90905.1 [ms]
piso step 91131.3 [ms]
 contErrors 
time step continuity errors : sum local = 1.80308e-10, global = 5.38514e-23, cumulative = -9.90072e-24
ExecutionTime = 3361.08 s  ClockTime = 3379 s

Time = 0.000325

Courant Number mean: 0.00427673 max: 0.0955249
DILUPBiCGStab:  Solving for Ux, Initial residual = 0.0121539, Final residual = 1.04581e-05, No Iterations 5
DILUPBiCGStab:  Solving for Uy, Initial residual = 0.0197134, Final residual = 1.15664e-05, No Iterations 5
DILUPBiCGStab:  Solving for Uz, Initial residual = 0.0380464, Final residual = 4.19431e-05, No Iterations 5
linear solve U 3677.21 [ms]
piso setup 608.859 [ms]
 correctNonOrthogonal 
 setRef 
 startSolve 
PETSc-cg:  Solving for p, Initial residual = 0.0181297, Final residual = 9.85458e-05, No Iterations 1369
linear solve p 92392.3 [ms]
piso step 92622.8 [ms]
 contErrors 
time step continuity errors : sum local = 1.83988e-10, global = 4.48487e-23, cumulative = 3.4948e-23
piso setup 596.414 [ms]
 correctNonOrthogonal 
 setRef 
 startSolve 
PETSc-cg:  Solving for p, Initial residual = 0.0169186, Final residual = 9.9827e-05, No Iterations 1277
linear solve p 86285.8 [ms]
piso step 86513.3 [ms]
 contErrors 
time step continuity errors : sum local = 1.75852e-10, global = 1.00948e-23, cumulative = 4.50428e-23
ExecutionTime = 3545.33 s  ClockTime = 3564 s

Time = 0.00035

Courant Number mean: 0.00443142 max: 0.0957
DILUPBiCGStab:  Solving for Ux, Initial residual = 0.0112966, Final residual = 9.11862e-06, No Iterations 5
DILUPBiCGStab:  Solving for Uy, Initial residual = 0.0181184, Final residual = 1.04503e-05, No Iterations 5
DILUPBiCGStab:  Solving for Uz, Initial residual = 0.0356025, Final residual = 4.07194e-05, No Iterations 5
linear solve U 3689.55 [ms]
piso setup 609.471 [ms]
 correctNonOrthogonal 
 setRef 
 startSolve 
PETSc-cg:  Solving for p, Initial residual = 0.0157712, Final residual = 9.952e-05, No Iterations 2903
linear solve p 195569 [ms]
piso step 195799 [ms]
 contErrors 
time step continuity errors : sum local = 1.73775e-10, global = 2.9134e-23, cumulative = 7.41768e-23
piso setup 597.303 [ms]
 correctNonOrthogonal 
 setRef 
 startSolve 
PETSc-cg:  Solving for p, Initial residual = 0.0148988, Final residual = 9.98468e-05, No Iterations 2900
linear solve p 195418 [ms]
piso step 195645 [ms]
 contErrors 
time step continuity errors : sum local = 1.74437e-10, global = 4.0244e-23, cumulative = 1.14421e-22
ExecutionTime = 3940.82 s  ClockTime = 3962 s

Time = 0.000375

Courant Number mean: 0.00457851 max: 0.095855
DILUPBiCGStab:  Solving for Ux, Initial residual = 0.0105439, Final residual = 8.06968e-06, No Iterations 5
DILUPBiCGStab:  Solving for Uy, Initial residual = 0.0167805, Final residual = 9.56972e-06, No Iterations 5
DILUPBiCGStab:  Solving for Uz, Initial residual = 0.0315628, Final residual = 2.37234e-05, No Iterations 5
linear solve U 3676.08 [ms]
piso setup 609.864 [ms]
 correctNonOrthogonal 
 setRef 
 startSolve 
PETSc-cg:  Solving for p, Initial residual = 0.0142988, Final residual = 9.9345e-05, No Iterations 1183
linear solve p 79837.6 [ms]
piso step 80068.2 [ms]
 contErrors 
time step continuity errors : sum local = 1.78381e-10, global = -2.20366e-25, cumulative = 1.142e-22
piso setup 596.517 [ms]
 correctNonOrthogonal 
 setRef 
 startSolve 
PETSc-cg:  Solving for p, Initial residual = 0.0135469, Final residual = 9.94934e-05, No Iterations 1173
linear solve p 79166.4 [ms]
piso step 79394.7 [ms]
 contErrors 
time step continuity errors : sum local = 1.75836e-10, global = 8.89374e-23, cumulative = 2.03138e-22
ExecutionTime = 4105.5 s  ClockTime = 4127 s

Time = 0.0004

Courant Number mean: 0.004719 max: 0.0959932
DILUPBiCGStab:  Solving for Ux, Initial residual = 0.0098908, Final residual = 7.24297e-06, No Iterations 5
DILUPBiCGStab:  Solving for Uy, Initial residual = 0.0156132, Final residual = 8.79214e-06, No Iterations 5
DILUPBiCGStab:  Solving for Uz, Initial residual = 0.029978, Final residual = 1.84672e-05, No Iterations 5
linear solve U 3677.99 [ms]
piso setup 609.339 [ms]
 correctNonOrthogonal 
 setRef 
 startSolve 
PETSc-cg:  Solving for p, Initial residual = 0.0128588, Final residual = 9.88568e-05, No Iterations 1190
linear solve p 80339.6 [ms]
piso step 80570.1 [ms]
 contErrors 
time step continuity errors : sum local = 1.78097e-10, global = -1.24987e-22, cumulative = 7.81512e-23
piso setup 597.199 [ms]
 correctNonOrthogonal 
 setRef 
 startSolve 
PETSc-cg:  Solving for p, Initial residual = 0.0122567, Final residual = 9.74776e-05, No Iterations 1174
linear solve p 79296 [ms]
piso step 79523 [ms]
 contErrors 
time step continuity errors : sum local = 1.71342e-10, global = 4.47537e-23, cumulative = 1.22905e-22
ExecutionTime = 4270.8 s  ClockTime = 4293 s

Time = 0.000425

Courant Number mean: 0.00485338 max: 0.0961176
DILUPBiCGStab:  Solving for Ux, Initial residual = 0.00931075, Final residual = 6.58462e-06, No Iterations 5
DILUPBiCGStab:  Solving for Uy, Initial residual = 0.0146052, Final residual = 8.15472e-06, No Iterations 5
DILUPBiCGStab:  Solving for Uz, Initial residual = 0.028145, Final residual = 1.89973e-05, No Iterations 5
linear solve U 3671.97 [ms]
piso setup 610.549 [ms]
 correctNonOrthogonal 
 setRef 
 startSolve 
PETSc-cg:  Solving for p, Initial residual = 0.0117049, Final residual = 9.94778e-05, No Iterations 1307
linear solve p 88234.5 [ms]
piso step 88465.2 [ms]
 contErrors 
time step continuity errors : sum local = 1.80419e-10, global = -4.37928e-23, cumulative = 7.91122e-23
piso setup 597.605 [ms]
 correctNonOrthogonal 
 setRef 
 startSolve 
PETSc-cg:  Solving for p, Initial residual = 0.0111791, Final residual = 9.99855e-05, No Iterations 1273
linear solve p 85934.6 [ms]
piso step 86162.8 [ms]
 contErrors 
time step continuity errors : sum local = 1.77187e-10, global = -9.12392e-23, cumulative = -1.2127e-23
ExecutionTime = 4450.57 s  ClockTime = 4474 s

Time = 0.00045

Courant Number mean: 0.00498241 max: 0.0962302
DILUPBiCGStab:  Solving for Ux, Initial residual = 0.00880041, Final residual = 6.05457e-06, No Iterations 5
DILUPBiCGStab:  Solving for Uy, Initial residual = 0.0137064, Final residual = 7.5872e-06, No Iterations 5
DILUPBiCGStab:  Solving for Uz, Initial residual = 0.0268818, Final residual = 1.82881e-05, No Iterations 5
linear solve U 3686.94 [ms]
piso setup 610.297 [ms]
 correctNonOrthogonal 
 setRef 
 startSolve 
PETSc-cg:  Solving for p, Initial residual = 0.0108854, Final residual = 9.98891e-05, No Iterations 1297
linear solve p 87526.5 [ms]
piso step 87756.8 [ms]
 contErrors 
time step continuity errors : sum local = 1.82042e-10, global = 5.1925e-24, cumulative = -6.93446e-24
piso setup 597.348 [ms]
 correctNonOrthogonal 
 setRef 
 startSolve 
PETSc-cg:  Solving for p, Initial residual = 0.0104176, Final residual = 9.95952e-05, No Iterations 1218
linear solve p 82212.3 [ms]
piso step 82439.1 [ms]
 contErrors 
time step continuity errors : sum local = 1.75808e-10, global = -5.57439e-23, cumulative = -6.26784e-23
ExecutionTime = 4625.92 s  ClockTime = 4650 s

Time = 0.000475

Courant Number mean: 0.00510644 max: 0.096333
DILUPBiCGStab:  Solving for Ux, Initial residual = 0.0083376, Final residual = 5.62711e-06, No Iterations 5
DILUPBiCGStab:  Solving for Uy, Initial residual = 0.0129216, Final residual = 7.10727e-06, No Iterations 5
DILUPBiCGStab:  Solving for Uz, Initial residual = 0.0254263, Final residual = 1.95719e-05, No Iterations 5
linear solve U 3674.83 [ms]
piso setup 608.574 [ms]
 correctNonOrthogonal 
 setRef 
 startSolve 
PETSc-cg:  Solving for p, Initial residual = 0.0101868, Final residual = 9.91113e-05, No Iterations 1312
linear solve p 88557.8 [ms]
piso step 88788.3 [ms]
 contErrors 
time step continuity errors : sum local = 1.82258e-10, global = -4.45062e-23, cumulative = -1.07185e-22
piso setup 595.873 [ms]
 correctNonOrthogonal 
 setRef 
 startSolve 
PETSc-cg:  Solving for p, Initial residual = 0.00974848, Final residual = 9.9645e-05, No Iterations 1284
linear solve p 86708.7 [ms]
piso step 86936.3 [ms]
 contErrors 
time step continuity errors : sum local = 1.77311e-10, global = -7.3351e-23, cumulative = -1.80536e-22
ExecutionTime = 4806.78 s  ClockTime = 4832 s

Time = 0.0005

Courant Number mean: 0.00522603 max: 0.0964271
DILUPBiCGStab:  Solving for Ux, Initial residual = 0.00792807, Final residual = 5.29099e-06, No Iterations 5
DILUPBiCGStab:  Solving for Uy, Initial residual = 0.0122057, Final residual = 6.67707e-06, No Iterations 5
DILUPBiCGStab:  Solving for Uz, Initial residual = 0.0242589, Final residual = 1.97399e-05, No Iterations 5
linear solve U 3678.47 [ms]
piso setup 610.868 [ms]
 correctNonOrthogonal 
 setRef 
 startSolve 
PETSc-cg:  Solving for p, Initial residual = 0.00957963, Final residual = 9.99065e-05, No Iterations 1292
linear solve p 87199.9 [ms]
piso step 87430 [ms]
 contErrors 
time step continuity errors : sum local = 1.84939e-10, global = -1.06311e-22, cumulative = -2.86847e-22
piso setup 596.722 [ms]
 correctNonOrthogonal 
 setRef 
 startSolve 
PETSc-cg:  Solving for p, Initial residual = 0.00918672, Final residual = 9.9629e-05, No Iterations 1179
linear solve p 79607.5 [ms]
piso step 79834.6 [ms]
 contErrors 
time step continuity errors : sum local = 1.76859e-10, global = -5.27715e-23, cumulative = -3.39619e-22
ExecutionTime = 4979.22 s  ClockTime = 5005 s

End

Finalizing PETSc
Finalising parallel run
================================================================================
