hash: d91afac796ebef7013ad70b55694dffe
/*---------------------------------------------------------------------------*\
| =========                 |                                                 |
| \\      /  F ield         | OpenFOAM: The Open Source CFD Toolbox           |
|  \\    /   O peration     | Version:  v2106                                 |
|   \\  /    A nd           | Website:  www.openfoam.com                      |
|    \\/     M anipulation  |                                                 |
\*---------------------------------------------------------------------------*/
Build  : f815a12bba-20210902 OPENFOAM=2106
Arch   : "LSB;label=32;scalar=64"
Exec   : icoFoam -parallel
Date   : Aug 05 2022
Time   : 16:15:40
Host   : nla-gpu2.ianm.kit.edu
PID    : 10882
I/O    : uncollated
Case   : /home/greole/data/code/ogl_labbook/lidDrivenCavity/single_node/mesh/100/matrix_solver/CG_NoPrecond_PETSC_HIP/mpiRank_of/4/base
nProcs : 4
Hosts  :
(
    (nla-gpu2.ianm.kit.edu 4)
)
Pstream initialized with:
    floatTransfer      : 0
    nProcsSimpleSum    : 0
    commsType          : nonBlocking
    polling iterations : 0
trapFpe: Floating point exception trapping enabled (FOAM_SIGFPE).
fileModificationChecking : Monitoring run-time modified files using timeStampMaster (fileModificationSkew 5, maxFileModificationPolls 20)
allowSystemOperations : Allowing user-supplied system call operations

// * * * * * * * * * * * * * * * * * * * * * * * * * * * * * * * * * * * * * //
Create time

Create mesh for time = 0


PISO: Operating solver in PISO mode

Reading transportProperties

Reading field p

Reading field U

Reading/calculating face flux field phi


Starting time loop

Time = 0.0001

Courant Number mean: 0 max: 0
DILUPBiCGStab:  Solving for Ux, Initial residual = 1, Final residual = 1.97187e-06, No Iterations 5
DILUPBiCGStab:  Solving for Uy:  solution singularity
DILUPBiCGStab:  Solving for Uz:  solution singularity
linear solve U 114647
Initializing PETSc
PETSc-cg:  Solving for p, Initial residual = 1, Final residual = 9.70388e-05, No Iterations 794
linear solve p 2760046
time step continuity errors : sum local = 1.71429e-09, global = 6.55851e-22, cumulative = 6.55851e-22
PETSc-cg:  Solving for p, Initial residual = 0.560011, Final residual = 9.72562e-05, No Iterations 777
linear solve p 2553615
time step continuity errors : sum local = 2.66021e-09, global = -3.1193e-22, cumulative = 3.43921e-22
ExecutionTime = 7.05 s  ClockTime = 7 s

Time = 0.0002

Courant Number mean: 0.00201333 max: 0.0540371
DILUPBiCGStab:  Solving for Ux, Initial residual = 0.216464, Final residual = 1.43015e-06, No Iterations 5
DILUPBiCGStab:  Solving for Uy, Initial residual = 0.309937, Final residual = 6.7688e-07, No Iterations 5
DILUPBiCGStab:  Solving for Uz, Initial residual = 0.981329, Final residual = 1.84058e-06, No Iterations 5
linear solve U 199675
PETSc-cg:  Solving for p, Initial residual = 0.381683, Final residual = 9.09543e-05, No Iterations 769
linear solve p 2516874
time step continuity errors : sum local = 2.37872e-09, global = -4.64133e-22, cumulative = -1.20212e-22
PETSc-cg:  Solving for p, Initial residual = 0.284788, Final residual = 9.51549e-05, No Iterations 764
linear solve p 2506465
time step continuity errors : sum local = 2.6074e-09, global = -6.28693e-22, cumulative = -7.48905e-22
ExecutionTime = 12.38 s  ClockTime = 13 s

Time = 0.0003

Courant Number mean: 0.00317979 max: 0.0721774
DILUPBiCGStab:  Solving for Ux, Initial residual = 0.0963256, Final residual = 6.01065e-07, No Iterations 5
DILUPBiCGStab:  Solving for Uy, Initial residual = 0.140691, Final residual = 2.52344e-07, No Iterations 5
DILUPBiCGStab:  Solving for Uz, Initial residual = 0.205587, Final residual = 4.28954e-07, No Iterations 5
linear solve U 201430
PETSc-cg:  Solving for p, Initial residual = 0.128583, Final residual = 9.73857e-05, No Iterations 743
linear solve p 2430033
time step continuity errors : sum local = 2.2947e-09, global = -9.66276e-23, cumulative = -8.45532e-22
PETSc-cg:  Solving for p, Initial residual = 0.0996134, Final residual = 9.37231e-05, No Iterations 737
linear solve p 2407474
time step continuity errors : sum local = 2.23712e-09, global = -1.00338e-22, cumulative = -9.45871e-22
ExecutionTime = 17.53 s  ClockTime = 18 s

Time = 0.0004

Courant Number mean: 0.00397985 max: 0.0793326
DILUPBiCGStab:  Solving for Ux, Initial residual = 0.0593651, Final residual = 3.13855e-07, No Iterations 5
DILUPBiCGStab:  Solving for Uy, Initial residual = 0.0868086, Final residual = 1.28517e-07, No Iterations 5
DILUPBiCGStab:  Solving for Uz, Initial residual = 0.127033, Final residual = 1.68388e-07, No Iterations 5
linear solve U 199019
PETSc-cg:  Solving for p, Initial residual = 0.0642919, Final residual = 9.68389e-05, No Iterations 729
linear solve p 2380239
time step continuity errors : sum local = 2.24515e-09, global = 7.39222e-23, cumulative = -8.71949e-22
PETSc-cg:  Solving for p, Initial residual = 0.0497259, Final residual = 9.98569e-05, No Iterations 719
linear solve p 2351269
time step continuity errors : sum local = 2.35108e-09, global = -4.94118e-22, cumulative = -1.36607e-21
ExecutionTime = 22.56 s  ClockTime = 23 s

Time = 0.0005

Courant Number mean: 0.0046013 max: 0.0828851
DILUPBiCGStab:  Solving for Ux, Initial residual = 0.0428599, Final residual = 2.14012e-07, No Iterations 5
DILUPBiCGStab:  Solving for Uy, Initial residual = 0.061865, Final residual = 8.4253e-08, No Iterations 5
DILUPBiCGStab:  Solving for Uz, Initial residual = 0.0970997, Final residual = 1.26005e-07, No Iterations 5
linear solve U 197223
PETSc-cg:  Solving for p, Initial residual = 0.0389481, Final residual = 9.92943e-05, No Iterations 402
linear solve p 1320928
time step continuity errors : sum local = 2.67259e-09, global = 6.38501e-22, cumulative = -7.27565e-22
PETSc-cg:  Solving for p, Initial residual = 0.030576, Final residual = 9.88133e-05, No Iterations 339
linear solve p 1122755
time step continuity errors : sum local = 2.46985e-09, global = 8.94389e-23, cumulative = -6.38127e-22
ExecutionTime = 25.32 s  ClockTime = 26 s

Time = 0.0006

Courant Number mean: 0.00511865 max: 0.0850108
DILUPBiCGStab:  Solving for Ux, Initial residual = 0.0336701, Final residual = 1.47568e-07, No Iterations 5
DILUPBiCGStab:  Solving for Uy, Initial residual = 0.0480492, Final residual = 5.72581e-08, No Iterations 5
DILUPBiCGStab:  Solving for Uz, Initial residual = 0.0802301, Final residual = 1.09034e-07, No Iterations 5
linear solve U 198813
PETSc-cg:  Solving for p, Initial residual = 0.0269234, Final residual = 9.76554e-05, No Iterations 341
linear solve p 1122042
time step continuity errors : sum local = 2.55065e-09, global = -2.73817e-22, cumulative = -9.11944e-22
PETSc-cg:  Solving for p, Initial residual = 0.0213632, Final residual = 9.57558e-05, No Iterations 312
linear solve p 1027294
time step continuity errors : sum local = 2.42992e-09, global = 2.76795e-22, cumulative = -6.35149e-22
ExecutionTime = 27.79 s  ClockTime = 28 s

Time = 0.0007

Courant Number mean: 0.00556498 max: 0.086455
DILUPBiCGStab:  Solving for Ux, Initial residual = 0.0277666, Final residual = 9.57656e-08, No Iterations 5
DILUPBiCGStab:  Solving for Uy, Initial residual = 0.0392375, Final residual = 4.04158e-08, No Iterations 5
DILUPBiCGStab:  Solving for Uz, Initial residual = 0.0677188, Final residual = 9.01365e-08, No Iterations 5
linear solve U 198319
PETSc-cg:  Solving for p, Initial residual = 0.0207632, Final residual = 9.70889e-05, No Iterations 301
linear solve p 991690
time step continuity errors : sum local = 2.59321e-09, global = -8.53816e-22, cumulative = -1.48896e-21
PETSc-cg:  Solving for p, Initial residual = 0.0164994, Final residual = 9.72992e-05, No Iterations 293
linear solve p 966779
time step continuity errors : sum local = 2.5171e-09, global = -1.09765e-21, cumulative = -2.58661e-21
ExecutionTime = 30.06 s  ClockTime = 31 s

Time = 0.0008

Courant Number mean: 0.00596231 max: 0.0875193
DILUPBiCGStab:  Solving for Ux, Initial residual = 0.0236243, Final residual = 6.98571e-08, No Iterations 5
DILUPBiCGStab:  Solving for Uy, Initial residual = 0.0331355, Final residual = 2.87943e-08, No Iterations 5
DILUPBiCGStab:  Solving for Uz, Initial residual = 0.0588506, Final residual = 6.71675e-08, No Iterations 5
linear solve U 199638
PETSc-cg:  Solving for p, Initial residual = 0.0166952, Final residual = 9.76358e-05, No Iterations 294
linear solve p 969946
time step continuity errors : sum local = 2.6173e-09, global = -1.27866e-21, cumulative = -3.86527e-21
PETSc-cg:  Solving for p, Initial residual = 0.0133985, Final residual = 9.91508e-05, No Iterations 287
linear solve p 944672
time step continuity errors : sum local = 2.59585e-09, global = -1.12641e-22, cumulative = -3.97791e-21
ExecutionTime = 32.3 s  ClockTime = 33 s

Time = 0.0009

Courant Number mean: 0.00631848 max: 0.0883467
DILUPBiCGStab:  Solving for Ux, Initial residual = 0.0205605, Final residual = 5.63386e-08, No Iterations 5
DILUPBiCGStab:  Solving for Uy, Initial residual = 0.0286497, Final residual = 2.13638e-08, No Iterations 5
DILUPBiCGStab:  Solving for Uz, Initial residual = 0.051989, Final residual = 5.03786e-08, No Iterations 5
linear solve U 199750
PETSc-cg:  Solving for p, Initial residual = 0.0139, Final residual = 9.89467e-05, No Iterations 288
linear solve p 948835
time step continuity errors : sum local = 2.67064e-09, global = 2.39944e-22, cumulative = -3.73797e-21
PETSc-cg:  Solving for p, Initial residual = 0.0112125, Final residual = 9.73615e-05, No Iterations 283
linear solve p 933007
time step continuity errors : sum local = 2.58284e-09, global = -7.23369e-23, cumulative = -3.8103e-21
ExecutionTime = 34.49 s  ClockTime = 35 s

Time = 0.001

Courant Number mean: 0.00664439 max: 0.0890141
DILUPBiCGStab:  Solving for Ux, Initial residual = 0.0181845, Final residual = 4.82463e-08, No Iterations 5
DILUPBiCGStab:  Solving for Uy, Initial residual = 0.0252122, Final residual = 1.67126e-08, No Iterations 5
DILUPBiCGStab:  Solving for Uz, Initial residual = 0.0465047, Final residual = 3.9532e-08, No Iterations 5
linear solve U 199066
PETSc-cg:  Solving for p, Initial residual = 0.0118813, Final residual = 9.88409e-05, No Iterations 285
linear solve p 940287
time step continuity errors : sum local = 2.68418e-09, global = -6.49999e-22, cumulative = -4.4603e-21
PETSc-cg:  Solving for p, Initial residual = 0.00962253, Final residual = 9.93774e-05, No Iterations 280
linear solve p 923253
time step continuity errors : sum local = 2.65662e-09, global = 1.58695e-22, cumulative = -4.30161e-21
ExecutionTime = 36.66 s  ClockTime = 37 s

Time = 0.0011

Courant Number mean: 0.00694534 max: 0.0895673
DILUPBiCGStab:  Solving for Ux, Initial residual = 0.016298, Final residual = 4.26007e-08, No Iterations 5
DILUPBiCGStab:  Solving for Uy, Initial residual = 0.0224933, Final residual = 1.36691e-08, No Iterations 5
DILUPBiCGStab:  Solving for Uz, Initial residual = 0.0420249, Final residual = 3.24612e-08, No Iterations 5
linear solve U 199441
PETSc-cg:  Solving for p, Initial residual = 0.0102892, Final residual = 9.86816e-05, No Iterations 283
linear solve p 934261
time step continuity errors : sum local = 2.69603e-09, global = -6.43236e-22, cumulative = -4.94484e-21
PETSc-cg:  Solving for p, Initial residual = 0.00835868, Final residual = 9.50876e-05, No Iterations 278
linear solve p 917721
time step continuity errors : sum local = 2.57336e-09, global = -1.04343e-21, cumulative = -5.98827e-21
ExecutionTime = 38.84 s  ClockTime = 39 s

Time = 0.0012

Courant Number mean: 0.0072238 max: 0.0900356
DILUPBiCGStab:  Solving for Ux, Initial residual = 0.0147479, Final residual = 3.82097e-08, No Iterations 5
DILUPBiCGStab:  Solving for Uy, Initial residual = 0.0202888, Final residual = 1.15662e-08, No Iterations 5
DILUPBiCGStab:  Solving for Uz, Initial residual = 0.0383006, Final residual = 2.77437e-08, No Iterations 5
linear solve U 200615
PETSc-cg:  Solving for p, Initial residual = 0.00904299, Final residual = 9.77785e-05, No Iterations 279
linear solve p 915469
time step continuity errors : sum local = 2.68734e-09, global = -1.82931e-22, cumulative = -6.1712e-21
PETSc-cg:  Solving for p, Initial residual = 0.00738311, Final residual = 9.84689e-05, No Iterations 275
linear solve p 911955
time step continuity errors : sum local = 2.67392e-09, global = -3.03493e-22, cumulative = -6.47469e-21
ExecutionTime = 40.99 s  ClockTime = 42 s

Time = 0.0013

Courant Number mean: 0.00748303 max: 0.0904387
DILUPBiCGStab:  Solving for Ux, Initial residual = 0.0134667, Final residual = 3.45598e-08, No Iterations 5
DILUPBiCGStab:  Solving for Uy, Initial residual = 0.0184656, Final residual = 9.99067e-09, No Iterations 5
DILUPBiCGStab:  Solving for Uz, Initial residual = 0.03516, Final residual = 2.44811e-08, No Iterations 5
linear solve U 200915
PETSc-cg:  Solving for p, Initial residual = 0.00809217, Final residual = 9.76645e-05, No Iterations 276
linear solve p 910536
time step continuity errors : sum local = 2.69702e-09, global = -1.08673e-21, cumulative = -7.56142e-21
PETSc-cg:  Solving for p, Initial residual = 0.00662692, Final residual = 9.92623e-05, No Iterations 271
linear solve p 895566
time step continuity errors : sum local = 2.70947e-09, global = -1.48189e-21, cumulative = -9.04332e-21
ExecutionTime = 43.11 s  ClockTime = 44 s

Time = 0.0014

Courant Number mean: 0.00772784 max: 0.0907903
DILUPBiCGStab:  Solving for Ux, Initial residual = 0.0123791, Final residual = 3.1435e-08, No Iterations 5
DILUPBiCGStab:  Solving for Uy, Initial residual = 0.0169327, Final residual = 8.77257e-09, No Iterations 5
DILUPBiCGStab:  Solving for Uz, Initial residual = 0.032475, Final residual = 2.21792e-08, No Iterations 5
linear solve U 200896
PETSc-cg:  Solving for p, Initial residual = 0.00727805, Final residual = 9.78267e-05, No Iterations 274
linear solve p 904227
time step continuity errors : sum local = 2.71223e-09, global = -6.78474e-22, cumulative = -9.72179e-21
PETSc-cg:  Solving for p, Initial residual = 0.00597727, Final residual = 9.69955e-05, No Iterations 270
linear solve p 891438
time step continuity errors : sum local = 2.66764e-09, global = -1.74986e-21, cumulative = -1.14716e-20
ExecutionTime = 45.23 s  ClockTime = 46 s

Time = 0.0015

Courant Number mean: 0.00795862 max: 0.0911006
DILUPBiCGStab:  Solving for Ux, Initial residual = 0.0114468, Final residual = 2.87261e-08, No Iterations 5
DILUPBiCGStab:  Solving for Uy, Initial residual = 0.0156261, Final residual = 7.77152e-09, No Iterations 5
DILUPBiCGStab:  Solving for Uz, Initial residual = 0.0301543, Final residual = 2.04251e-08, No Iterations 5
linear solve U 200553
PETSc-cg:  Solving for p, Initial residual = 0.00657815, Final residual = 9.8148e-05, No Iterations 271
linear solve p 894063
time step continuity errors : sum local = 2.72956e-09, global = -1.49796e-21, cumulative = -1.29696e-20
PETSc-cg:  Solving for p, Initial residual = 0.00542431, Final residual = 9.84906e-05, No Iterations 266
linear solve p 876865
time step continuity errors : sum local = 2.71668e-09, global = 1.86012e-22, cumulative = -1.27836e-20
ExecutionTime = 47.31 s  ClockTime = 48 s

Time = 0.0016

Courant Number mean: 0.00817649 max: 0.091377
DILUPBiCGStab:  Solving for Ux, Initial residual = 0.0106404, Final residual = 2.63439e-08, No Iterations 5
DILUPBiCGStab:  Solving for Uy, Initial residual = 0.0144993, Final residual = 6.96134e-09, No Iterations 5
DILUPBiCGStab:  Solving for Uz, Initial residual = 0.0281296, Final residual = 1.90623e-08, No Iterations 5
linear solve U 198285
PETSc-cg:  Solving for p, Initial residual = 0.00603109, Final residual = 9.77972e-05, No Iterations 271
linear solve p 894648
time step continuity errors : sum local = 2.73032e-09, global = -1.50102e-21, cumulative = -1.42846e-20
PETSc-cg:  Solving for p, Initial residual = 0.00496393, Final residual = 9.46596e-05, No Iterations 265
linear solve p 876353
time step continuity errors : sum local = 2.63321e-09, global = -3.19705e-23, cumulative = -1.43166e-20
ExecutionTime = 49.4 s  ClockTime = 50 s

Time = 0.0017

Courant Number mean: 0.0083825 max: 0.0916252
DILUPBiCGStab:  Solving for Ux, Initial residual = 0.00993235, Final residual = 2.42377e-08, No Iterations 5
DILUPBiCGStab:  Solving for Uy, Initial residual = 0.0135175, Final residual = 6.25183e-09, No Iterations 5
DILUPBiCGStab:  Solving for Uz, Initial residual = 0.0263475, Final residual = 1.78545e-08, No Iterations 5
linear solve U 199941
PETSc-cg:  Solving for p, Initial residual = 0.00548772, Final residual = 9.80802e-05, No Iterations 269
linear solve p 886605
time step continuity errors : sum local = 2.74504e-09, global = 2.83578e-22, cumulative = -1.4033e-20
PETSc-cg:  Solving for p, Initial residual = 0.00454019, Final residual = 9.85617e-05, No Iterations 262
linear solve p 866791
time step continuity errors : sum local = 2.73907e-09, global = -1.50948e-21, cumulative = -1.55425e-20
ExecutionTime = 51.48 s  ClockTime = 52 s

Time = 0.0018

Courant Number mean: 0.00857956 max: 0.0918497
DILUPBiCGStab:  Solving for Ux, Initial residual = 0.00931092, Final residual = 2.2369e-08, No Iterations 5
DILUPBiCGStab:  Solving for Uy, Initial residual = 0.0126547, Final residual = 5.65301e-09, No Iterations 5
DILUPBiCGStab:  Solving for Uz, Initial residual = 0.0247676, Final residual = 1.67514e-08, No Iterations 5
linear solve U 200315
PETSc-cg:  Solving for p, Initial residual = 0.0050821, Final residual = 9.9397e-05, No Iterations 265
linear solve p 874823
time step continuity errors : sum local = 2.7851e-09, global = -2.24786e-23, cumulative = -1.5565e-20
PETSc-cg:  Solving for p, Initial residual = 0.00421381, Final residual = 9.65336e-05, No Iterations 261
linear solve p 862848
time step continuity errors : sum local = 2.69759e-09, global = -1.41158e-22, cumulative = -1.57061e-20
ExecutionTime = 53.52 s  ClockTime = 54 s

Time = 0.0019

Courant Number mean: 0.00876814 max: 0.092054
DILUPBiCGStab:  Solving for Ux, Initial residual = 0.00875809, Final residual = 2.07013e-08, No Iterations 5
DILUPBiCGStab:  Solving for Uy, Initial residual = 0.0118904, Final residual = 5.13823e-09, No Iterations 5
DILUPBiCGStab:  Solving for Uz, Initial residual = 0.0233574, Final residual = 1.57906e-08, No Iterations 5
linear solve U 199845
PETSc-cg:  Solving for p, Initial residual = 0.00474474, Final residual = 9.9002e-05, No Iterations 265
linear solve p 874487
time step continuity errors : sum local = 2.78194e-09, global = -1.72285e-21, cumulative = -1.7429e-20
PETSc-cg:  Solving for p, Initial residual = 0.003941, Final residual = 9.95271e-05, No Iterations 259
linear solve p 854478
time step continuity errors : sum local = 2.7797e-09, global = -2.36718e-21, cumulative = -1.97962e-20
ExecutionTime = 55.56 s  ClockTime = 56 s

Time = 0.002

Courant Number mean: 0.0089485 max: 0.0922409
DILUPBiCGStab:  Solving for Ux, Initial residual = 0.00826096, Final residual = 1.92004e-08, No Iterations 5
DILUPBiCGStab:  Solving for Uy, Initial residual = 0.0112088, Final residual = 4.68861e-09, No Iterations 5
DILUPBiCGStab:  Solving for Uz, Initial residual = 0.0220915, Final residual = 1.48915e-08, No Iterations 5
linear solve U 200633
PETSc-cg:  Solving for p, Initial residual = 0.0043959, Final residual = 9.89652e-05, No Iterations 263
linear solve p 868047
time step continuity errors : sum local = 2.78701e-09, global = -7.31786e-22, cumulative = -2.0528e-20
PETSc-cg:  Solving for p, Initial residual = 0.00365421, Final residual = 9.94402e-05, No Iterations 252
linear solve p 832769
time step continuity errors : sum local = 2.78463e-09, global = -2.40437e-21, cumulative = -2.29323e-20
ExecutionTime = 57.58 s  ClockTime = 58 s

End

Finalizing PETSc
Finalising parallel run
================================================================================
hash: 974676e952133d23c478057c7cf3cf1c
/*---------------------------------------------------------------------------*\
| =========                 |                                                 |
| \\      /  F ield         | OpenFOAM: The Open Source CFD Toolbox           |
|  \\    /   O peration     | Version:  v2106                                 |
|   \\  /    A nd           | Website:  www.openfoam.com                      |
|    \\/     M anipulation  |                                                 |
\*---------------------------------------------------------------------------*/
Build  : f815a12bba-20210902 OPENFOAM=2106
Arch   : "LSB;label=32;scalar=64"
Exec   : icoFoam -parallel
Date   : Aug 05 2022
Time   : 16:16:40
Host   : nla-gpu2.ianm.kit.edu
PID    : 10922
I/O    : uncollated
Case   : /home/greole/data/code/ogl_labbook/lidDrivenCavity/single_node/mesh/100/matrix_solver/CG_NoPrecond_PETSC_HIP/mpiRank_of/8/base
nProcs : 8
Hosts  :
(
    (nla-gpu2.ianm.kit.edu 8)
)
Pstream initialized with:
    floatTransfer      : 0
    nProcsSimpleSum    : 0
    commsType          : nonBlocking
    polling iterations : 0
trapFpe: Floating point exception trapping enabled (FOAM_SIGFPE).
fileModificationChecking : Monitoring run-time modified files using timeStampMaster (fileModificationSkew 5, maxFileModificationPolls 20)
allowSystemOperations : Allowing user-supplied system call operations

// * * * * * * * * * * * * * * * * * * * * * * * * * * * * * * * * * * * * * //
Create time

Create mesh for time = 0


PISO: Operating solver in PISO mode

Reading transportProperties

Reading field p

Reading field U

Reading/calculating face flux field phi


Starting time loop

Time = 0.0001

Courant Number mean: 0 max: 0
DILUPBiCGStab:  Solving for Ux, Initial residual = 1, Final residual = 3.41774e-06, No Iterations 5
DILUPBiCGStab:  Solving for Uy:  solution singularity
DILUPBiCGStab:  Solving for Uz:  solution singularity
linear solve U 68312
Initializing PETSc
PETSc-cg:  Solving for p, Initial residual = 1, Final residual = 9.69489e-05, No Iterations 794
linear solve p 1447882
time step continuity errors : sum local = 1.71279e-09, global = 1.66007e-22, cumulative = 1.66007e-22
PETSc-cg:  Solving for p, Initial residual = 0.559989, Final residual = 9.74042e-05, No Iterations 777
linear solve p 1314254
time step continuity errors : sum local = 2.66433e-09, global = -1.63442e-22, cumulative = 2.56555e-24
ExecutionTime = 3.84 s  ClockTime = 4 s

Time = 0.0002

Courant Number mean: 0.00201333 max: 0.0540371
DILUPBiCGStab:  Solving for Ux, Initial residual = 0.216464, Final residual = 2.36891e-06, No Iterations 5
DILUPBiCGStab:  Solving for Uy, Initial residual = 0.309937, Final residual = 1.75832e-06, No Iterations 5
DILUPBiCGStab:  Solving for Uz, Initial residual = 0.98133, Final residual = 5.76426e-06, No Iterations 5
linear solve U 106605
PETSc-cg:  Solving for p, Initial residual = 0.381684, Final residual = 9.10803e-05, No Iterations 769
linear solve p 1289129
time step continuity errors : sum local = 2.38202e-09, global = -7.64807e-22, cumulative = -7.62241e-22
PETSc-cg:  Solving for p, Initial residual = 0.284791, Final residual = 9.55135e-05, No Iterations 764
linear solve p 1275292
time step continuity errors : sum local = 2.61724e-09, global = -3.56831e-22, cumulative = -1.11907e-21
ExecutionTime = 6.61 s  ClockTime = 6 s

Time = 0.0003

Courant Number mean: 0.00317979 max: 0.0721774
DILUPBiCGStab:  Solving for Ux, Initial residual = 0.0963257, Final residual = 9.73969e-07, No Iterations 5
DILUPBiCGStab:  Solving for Uy, Initial residual = 0.140691, Final residual = 5.64829e-07, No Iterations 5
DILUPBiCGStab:  Solving for Uz, Initial residual = 0.20559, Final residual = 1.28849e-06, No Iterations 5
linear solve U 104943
PETSc-cg:  Solving for p, Initial residual = 0.128591, Final residual = 9.74861e-05, No Iterations 743
linear solve p 1241517
time step continuity errors : sum local = 2.2971e-09, global = -6.83339e-22, cumulative = -1.80241e-21
PETSc-cg:  Solving for p, Initial residual = 0.0996229, Final residual = 9.38571e-05, No Iterations 737
linear solve p 1247424
time step continuity errors : sum local = 2.24034e-09, global = -2.96353e-22, cumulative = -2.09876e-21
ExecutionTime = 9.27 s  ClockTime = 9 s

Time = 0.0004

Courant Number mean: 0.00397985 max: 0.0793326
DILUPBiCGStab:  Solving for Ux, Initial residual = 0.0593651, Final residual = 4.72119e-07, No Iterations 5
DILUPBiCGStab:  Solving for Uy, Initial residual = 0.0868086, Final residual = 2.90804e-07, No Iterations 5
DILUPBiCGStab:  Solving for Uz, Initial residual = 0.127035, Final residual = 6.2699e-07, No Iterations 5
linear solve U 105274
PETSc-cg:  Solving for p, Initial residual = 0.0642946, Final residual = 9.72717e-05, No Iterations 729
linear solve p 1213819
time step continuity errors : sum local = 2.25519e-09, global = -7.11642e-22, cumulative = -2.81041e-21
PETSc-cg:  Solving for p, Initial residual = 0.0497291, Final residual = 9.97536e-05, No Iterations 719
linear solve p 1211375
time step continuity errors : sum local = 2.34866e-09, global = 1.14804e-22, cumulative = -2.6956e-21
ExecutionTime = 11.88 s  ClockTime = 12 s

Time = 0.0005

Courant Number mean: 0.0046013 max: 0.0828851
DILUPBiCGStab:  Solving for Ux, Initial residual = 0.0428599, Final residual = 3.10041e-07, No Iterations 5
DILUPBiCGStab:  Solving for Uy, Initial residual = 0.061865, Final residual = 1.66961e-07, No Iterations 5
DILUPBiCGStab:  Solving for Uz, Initial residual = 0.0971004, Final residual = 4.22069e-07, No Iterations 5
linear solve U 102163
PETSc-cg:  Solving for p, Initial residual = 0.0389502, Final residual = 9.93384e-05, No Iterations 402
linear solve p 670771
time step continuity errors : sum local = 2.67361e-09, global = -6.0591e-22, cumulative = -3.30151e-21
PETSc-cg:  Solving for p, Initial residual = 0.0305783, Final residual = 9.85337e-05, No Iterations 339
linear solve p 574417
time step continuity errors : sum local = 2.46323e-09, global = -3.39351e-23, cumulative = -3.33545e-21
ExecutionTime = 13.29 s  ClockTime = 13 s

Time = 0.0006

Courant Number mean: 0.00511865 max: 0.0850108
DILUPBiCGStab:  Solving for Ux, Initial residual = 0.0336701, Final residual = 2.21808e-07, No Iterations 5
DILUPBiCGStab:  Solving for Uy, Initial residual = 0.0480492, Final residual = 1.15512e-07, No Iterations 5
DILUPBiCGStab:  Solving for Uz, Initial residual = 0.0802306, Final residual = 3.34296e-07, No Iterations 5
linear solve U 102776
PETSc-cg:  Solving for p, Initial residual = 0.026925, Final residual = 9.7749e-05, No Iterations 341
linear solve p 571724
time step continuity errors : sum local = 2.55287e-09, global = -1.07019e-21, cumulative = -4.40563e-21
PETSc-cg:  Solving for p, Initial residual = 0.0213649, Final residual = 9.6042e-05, No Iterations 312
linear solve p 525628
time step continuity errors : sum local = 2.43675e-09, global = -1.25899e-21, cumulative = -5.66462e-21
ExecutionTime = 14.56 s  ClockTime = 14 s

Time = 0.0007

Courant Number mean: 0.00556498 max: 0.086455
DILUPBiCGStab:  Solving for Ux, Initial residual = 0.0277666, Final residual = 1.62589e-07, No Iterations 5
DILUPBiCGStab:  Solving for Uy, Initial residual = 0.0392375, Final residual = 8.8851e-08, No Iterations 5
DILUPBiCGStab:  Solving for Uz, Initial residual = 0.0677194, Final residual = 2.71876e-07, No Iterations 5
linear solve U 102635
PETSc-cg:  Solving for p, Initial residual = 0.0207653, Final residual = 9.7016e-05, No Iterations 301
linear solve p 508742
time step continuity errors : sum local = 2.59146e-09, global = -3.17182e-22, cumulative = -5.98181e-21
PETSc-cg:  Solving for p, Initial residual = 0.0165012, Final residual = 9.75771e-05, No Iterations 293
linear solve p 513395
time step continuity errors : sum local = 2.52377e-09, global = 5.54087e-22, cumulative = -5.42772e-21
ExecutionTime = 15.76 s  ClockTime = 16 s

Time = 0.0008

Courant Number mean: 0.0059623 max: 0.0875193
DILUPBiCGStab:  Solving for Ux, Initial residual = 0.0236243, Final residual = 1.30748e-07, No Iterations 5
DILUPBiCGStab:  Solving for Uy, Initial residual = 0.0331355, Final residual = 7.13882e-08, No Iterations 5
DILUPBiCGStab:  Solving for Uz, Initial residual = 0.0588512, Final residual = 2.21557e-07, No Iterations 5
linear solve U 103682
PETSc-cg:  Solving for p, Initial residual = 0.0166945, Final residual = 9.76746e-05, No Iterations 294
linear solve p 491902
time step continuity errors : sum local = 2.61822e-09, global = -1.07254e-22, cumulative = -5.53497e-21
PETSc-cg:  Solving for p, Initial residual = 0.0133979, Final residual = 9.86224e-05, No Iterations 287
linear solve p 481141
time step continuity errors : sum local = 2.5831e-09, global = -5.36964e-22, cumulative = -6.07194e-21
ExecutionTime = 16.91 s  ClockTime = 17 s

Time = 0.0009

Courant Number mean: 0.00631848 max: 0.0883467
DILUPBiCGStab:  Solving for Ux, Initial residual = 0.0205606, Final residual = 1.09905e-07, No Iterations 5
DILUPBiCGStab:  Solving for Uy, Initial residual = 0.0286497, Final residual = 5.97135e-08, No Iterations 5
DILUPBiCGStab:  Solving for Uz, Initial residual = 0.0519895, Final residual = 1.8061e-07, No Iterations 5
linear solve U 102858
PETSc-cg:  Solving for p, Initial residual = 0.0139011, Final residual = 9.88798e-05, No Iterations 288
linear solve p 484781
time step continuity errors : sum local = 2.66902e-09, global = 1.7681e-23, cumulative = -6.05426e-21
PETSc-cg:  Solving for p, Initial residual = 0.0112134, Final residual = 9.7624e-05, No Iterations 283
linear solve p 475522
time step continuity errors : sum local = 2.5892e-09, global = -1.1578e-21, cumulative = -7.21206e-21
ExecutionTime = 18.04 s  ClockTime = 18 s

Time = 0.001

Courant Number mean: 0.00664439 max: 0.0890141
DILUPBiCGStab:  Solving for Ux, Initial residual = 0.0181845, Final residual = 9.44107e-08, No Iterations 5
DILUPBiCGStab:  Solving for Uy, Initial residual = 0.0252122, Final residual = 5.13938e-08, No Iterations 5
DILUPBiCGStab:  Solving for Uz, Initial residual = 0.0465051, Final residual = 1.48283e-07, No Iterations 5
linear solve U 104684
PETSc-cg:  Solving for p, Initial residual = 0.0118827, Final residual = 9.9223e-05, No Iterations 285
linear solve p 483944
time step continuity errors : sum local = 2.69345e-09, global = -2.29381e-21, cumulative = -9.50587e-21
PETSc-cg:  Solving for p, Initial residual = 0.00962375, Final residual = 9.93392e-05, No Iterations 280
linear solve p 471651
time step continuity errors : sum local = 2.65569e-09, global = -4.63014e-22, cumulative = -9.96889e-21
ExecutionTime = 19.17 s  ClockTime = 19 s

Time = 0.0011

Courant Number mean: 0.00694534 max: 0.0895673
DILUPBiCGStab:  Solving for Ux, Initial residual = 0.016298, Final residual = 8.23132e-08, No Iterations 5
DILUPBiCGStab:  Solving for Uy, Initial residual = 0.0224932, Final residual = 4.51597e-08, No Iterations 5
DILUPBiCGStab:  Solving for Uz, Initial residual = 0.0420253, Final residual = 1.22521e-07, No Iterations 5
linear solve U 102618
PETSc-cg:  Solving for p, Initial residual = 0.0102907, Final residual = 9.87054e-05, No Iterations 283
linear solve p 482082
time step continuity errors : sum local = 2.69661e-09, global = -3.04733e-22, cumulative = -1.02736e-20
PETSc-cg:  Solving for p, Initial residual = 0.00836003, Final residual = 9.48694e-05, No Iterations 278
linear solve p 468230
time step continuity errors : sum local = 2.56804e-09, global = -1.19172e-21, cumulative = -1.14653e-20
ExecutionTime = 20.29 s  ClockTime = 20 s

Time = 0.0012

Courant Number mean: 0.0072238 max: 0.0900356
DILUPBiCGStab:  Solving for Ux, Initial residual = 0.0147479, Final residual = 7.26046e-08, No Iterations 5
DILUPBiCGStab:  Solving for Uy, Initial residual = 0.0202888, Final residual = 4.02707e-08, No Iterations 5
DILUPBiCGStab:  Solving for Uz, Initial residual = 0.0383009, Final residual = 1.02295e-07, No Iterations 5
linear solve U 103991
PETSc-cg:  Solving for p, Initial residual = 0.00904432, Final residual = 9.7718e-05, No Iterations 279
linear solve p 466031
time step continuity errors : sum local = 2.68585e-09, global = 8.58676e-22, cumulative = -1.06067e-20
PETSc-cg:  Solving for p, Initial residual = 0.00738418, Final residual = 9.86245e-05, No Iterations 275
linear solve p 460336
time step continuity errors : sum local = 2.67772e-09, global = 3.39206e-22, cumulative = -1.02675e-20
ExecutionTime = 21.38 s  ClockTime = 21 s

Time = 0.0013

Courant Number mean: 0.00748302 max: 0.0904387
DILUPBiCGStab:  Solving for Ux, Initial residual = 0.0134667, Final residual = 6.4727e-08, No Iterations 5
DILUPBiCGStab:  Solving for Uy, Initial residual = 0.0184656, Final residual = 3.63082e-08, No Iterations 5
DILUPBiCGStab:  Solving for Uz, Initial residual = 0.0351603, Final residual = 8.67423e-08, No Iterations 5
linear solve U 103219
PETSc-cg:  Solving for p, Initial residual = 0.00809293, Final residual = 9.77247e-05, No Iterations 276
linear solve p 464887
time step continuity errors : sum local = 2.6985e-09, global = 8.67878e-22, cumulative = -9.39958e-21
PETSc-cg:  Solving for p, Initial residual = 0.00662758, Final residual = 9.95786e-05, No Iterations 271
linear solve p 454573
time step continuity errors : sum local = 2.71722e-09, global = -7.2672e-22, cumulative = -1.01263e-20
ExecutionTime = 22.48 s  ClockTime = 22 s

Time = 0.0014

Courant Number mean: 0.00772784 max: 0.0907903
DILUPBiCGStab:  Solving for Ux, Initial residual = 0.0123791, Final residual = 5.82097e-08, No Iterations 5
DILUPBiCGStab:  Solving for Uy, Initial residual = 0.0169327, Final residual = 3.30154e-08, No Iterations 5
DILUPBiCGStab:  Solving for Uz, Initial residual = 0.0324753, Final residual = 7.49308e-08, No Iterations 5
linear solve U 102650
PETSc-cg:  Solving for p, Initial residual = 0.007279, Final residual = 9.78113e-05, No Iterations 274
linear solve p 466089
time step continuity errors : sum local = 2.71184e-09, global = 3.84556e-22, cumulative = -9.74175e-21
PETSc-cg:  Solving for p, Initial residual = 0.00597783, Final residual = 9.70234e-05, No Iterations 270
linear solve p 455535
time step continuity errors : sum local = 2.66833e-09, global = -2.00136e-22, cumulative = -9.94188e-21
ExecutionTime = 23.57 s  ClockTime = 24 s

Time = 0.0015

Courant Number mean: 0.00795862 max: 0.0911006
DILUPBiCGStab:  Solving for Ux, Initial residual = 0.0114468, Final residual = 5.27549e-08, No Iterations 5
DILUPBiCGStab:  Solving for Uy, Initial residual = 0.0156261, Final residual = 3.02502e-08, No Iterations 5
DILUPBiCGStab:  Solving for Uz, Initial residual = 0.0301545, Final residual = 6.59995e-08, No Iterations 5
linear solve U 103836
PETSc-cg:  Solving for p, Initial residual = 0.006579, Final residual = 9.82087e-05, No Iterations 271
linear solve p 453695
time step continuity errors : sum local = 2.73105e-09, global = -5.3591e-22, cumulative = -1.04778e-20
PETSc-cg:  Solving for p, Initial residual = 0.00542502, Final residual = 9.86188e-05, No Iterations 266
linear solve p 445266
time step continuity errors : sum local = 2.71984e-09, global = -5.49475e-22, cumulative = -1.10273e-20
ExecutionTime = 24.62 s  ClockTime = 25 s

Time = 0.0016

Courant Number mean: 0.00817649 max: 0.091377
DILUPBiCGStab:  Solving for Ux, Initial residual = 0.0106404, Final residual = 4.81146e-08, No Iterations 5
DILUPBiCGStab:  Solving for Uy, Initial residual = 0.0144993, Final residual = 2.79063e-08, No Iterations 5
DILUPBiCGStab:  Solving for Uz, Initial residual = 0.0281299, Final residual = 5.91811e-08, No Iterations 5
linear solve U 101463
PETSc-cg:  Solving for p, Initial residual = 0.00603188, Final residual = 9.77796e-05, No Iterations 271
linear solve p 455935
time step continuity errors : sum local = 2.72988e-09, global = 3.8315e-22, cumulative = -1.06441e-20
PETSc-cg:  Solving for p, Initial residual = 0.00496462, Final residual = 9.46921e-05, No Iterations 265
linear solve p 451250
time step continuity errors : sum local = 2.63401e-09, global = -6.14843e-22, cumulative = -1.1259e-20
ExecutionTime = 25.7 s  ClockTime = 26 s

Time = 0.0017

Courant Number mean: 0.0083825 max: 0.0916252
DILUPBiCGStab:  Solving for Ux, Initial residual = 0.00993235, Final residual = 4.41296e-08, No Iterations 5
DILUPBiCGStab:  Solving for Uy, Initial residual = 0.0135175, Final residual = 2.58995e-08, No Iterations 5
DILUPBiCGStab:  Solving for Uz, Initial residual = 0.0263477, Final residual = 5.38242e-08, No Iterations 5
linear solve U 111096
PETSc-cg:  Solving for p, Initial residual = 0.00548816, Final residual = 9.99418e-05, No Iterations 266
linear solve p 447555
time step continuity errors : sum local = 2.79069e-09, global = -8.97884e-22, cumulative = -1.21568e-20
PETSc-cg:  Solving for p, Initial residual = 0.0045478, Final residual = 9.65862e-05, No Iterations 263
linear solve p 440144
time step continuity errors : sum local = 2.69022e-09, global = 9.85462e-22, cumulative = -1.11714e-20
ExecutionTime = 26.78 s  ClockTime = 27 s

Time = 0.0018

Courant Number mean: 0.00857956 max: 0.0918497
DILUPBiCGStab:  Solving for Ux, Initial residual = 0.00931095, Final residual = 4.06848e-08, No Iterations 5
DILUPBiCGStab:  Solving for Uy, Initial residual = 0.0126547, Final residual = 2.41768e-08, No Iterations 5
DILUPBiCGStab:  Solving for Uz, Initial residual = 0.0247679, Final residual = 4.9601e-08, No Iterations 5
linear solve U 103150
PETSc-cg:  Solving for p, Initial residual = 0.00513486, Final residual = 9.9425e-05, No Iterations 264
linear solve p 444395
time step continuity errors : sum local = 2.78583e-09, global = -1.58972e-21, cumulative = -1.27611e-20
PETSc-cg:  Solving for p, Initial residual = 0.00426371, Final residual = 9.05605e-05, No Iterations 262
linear solve p 441517
time step continuity errors : sum local = 2.55006e-09, global = -1.77827e-21, cumulative = -1.45394e-20
ExecutionTime = 27.83 s  ClockTime = 28 s

Time = 0.0019

Courant Number mean: 0.00876813 max: 0.092054
DILUPBiCGStab:  Solving for Ux, Initial residual = 0.0087581, Final residual = 3.76744e-08, No Iterations 5
DILUPBiCGStab:  Solving for Uy, Initial residual = 0.0118904, Final residual = 2.26835e-08, No Iterations 5
DILUPBiCGStab:  Solving for Uz, Initial residual = 0.0233576, Final residual = 4.6156e-08, No Iterations 5
linear solve U 106110
PETSc-cg:  Solving for p, Initial residual = 0.00475353, Final residual = 9.86046e-05, No Iterations 265
linear solve p 444220
time step continuity errors : sum local = 2.77213e-09, global = 6.20179e-23, cumulative = -1.44774e-20
PETSc-cg:  Solving for p, Initial residual = 0.00394574, Final residual = 9.7108e-05, No Iterations 259
linear solve p 434486
time step continuity errors : sum local = 2.7198e-09, global = -5.49145e-22, cumulative = -1.50265e-20
ExecutionTime = 28.88 s  ClockTime = 29 s

Time = 0.002

Courant Number mean: 0.0089485 max: 0.0922409
DILUPBiCGStab:  Solving for Ux, Initial residual = 0.00826097, Final residual = 3.50133e-08, No Iterations 5
DILUPBiCGStab:  Solving for Uy, Initial residual = 0.0112088, Final residual = 2.13819e-08, No Iterations 5
DILUPBiCGStab:  Solving for Uz, Initial residual = 0.0220916, Final residual = 4.32831e-08, No Iterations 5
linear solve U 103169
PETSc-cg:  Solving for p, Initial residual = 0.00439811, Final residual = 9.91391e-05, No Iterations 263
linear solve p 444895
time step continuity errors : sum local = 2.79134e-09, global = -1.7902e-21, cumulative = -1.68167e-20
PETSc-cg:  Solving for p, Initial residual = 0.00365378, Final residual = 9.74812e-05, No Iterations 255
linear solve p 429202
time step continuity errors : sum local = 2.73608e-09, global = -5.95798e-22, cumulative = -1.74125e-20
ExecutionTime = 29.92 s  ClockTime = 30 s

End

Finalizing PETSc
Finalising parallel run
================================================================================
hash: 2a418e382fd1eae2bd0d05a833818e97
/*---------------------------------------------------------------------------*\
| =========                 |                                                 |
| \\      /  F ield         | OpenFOAM: The Open Source CFD Toolbox           |
|  \\    /   O peration     | Version:  v2106                                 |
|   \\  /    A nd           | Website:  www.openfoam.com                      |
|    \\/     M anipulation  |                                                 |
\*---------------------------------------------------------------------------*/
Build  : f815a12bba-20210902 OPENFOAM=2106
Arch   : "LSB;label=32;scalar=64"
Exec   : icoFoam -parallel
Date   : Aug 05 2022
Time   : 16:17:12
Host   : nla-gpu2.ianm.kit.edu
PID    : 11065
I/O    : uncollated
Case   : /home/greole/data/code/ogl_labbook/lidDrivenCavity/single_node/mesh/100/matrix_solver/CG_NoPrecond_PETSC_HIP/mpiRank_of/16/base
nProcs : 16
Hosts  :
(
    (nla-gpu2.ianm.kit.edu 16)
)
Pstream initialized with:
    floatTransfer      : 0
    nProcsSimpleSum    : 0
    commsType          : nonBlocking
    polling iterations : 0
trapFpe: Floating point exception trapping enabled (FOAM_SIGFPE).
fileModificationChecking : Monitoring run-time modified files using timeStampMaster (fileModificationSkew 5, maxFileModificationPolls 20)
allowSystemOperations : Allowing user-supplied system call operations

// * * * * * * * * * * * * * * * * * * * * * * * * * * * * * * * * * * * * * //
Create time

Create mesh for time = 0


PISO: Operating solver in PISO mode

Reading transportProperties

Reading field p

Reading field U

Reading/calculating face flux field phi


Starting time loop

Time = 0.0001

Courant Number mean: 0 max: 0
DILUPBiCGStab:  Solving for Ux, Initial residual = 1, Final residual = 5.11961e-06, No Iterations 5
DILUPBiCGStab:  Solving for Uy:  solution singularity
DILUPBiCGStab:  Solving for Uz:  solution singularity
linear solve U 52160
Initializing PETSc
PETSc-cg:  Solving for p, Initial residual = 1, Final residual = 9.69354e-05, No Iterations 794
linear solve p 852561
time step continuity errors : sum local = 1.7126e-09, global = 2.01443e-22, cumulative = 2.01443e-22
PETSc-cg:  Solving for p, Initial residual = 0.559986, Final residual = 9.73648e-05, No Iterations 777
linear solve p 764799
time step continuity errors : sum local = 2.6633e-09, global = -5.86755e-23, cumulative = 1.42767e-22
ExecutionTime = 2.39 s  ClockTime = 3 s

Time = 0.0002

Courant Number mean: 0.00201332 max: 0.0540371
DILUPBiCGStab:  Solving for Ux, Initial residual = 0.216464, Final residual = 3.29584e-06, No Iterations 5
DILUPBiCGStab:  Solving for Uy, Initial residual = 0.309938, Final residual = 2.27465e-06, No Iterations 5
DILUPBiCGStab:  Solving for Uz, Initial residual = 0.98131, Final residual = 5.86948e-06, No Iterations 5
linear solve U 58886
PETSc-cg:  Solving for p, Initial residual = 0.381692, Final residual = 9.09864e-05, No Iterations 769
linear solve p 753450
time step continuity errors : sum local = 2.3796e-09, global = -4.34797e-22, cumulative = -2.9203e-22
PETSc-cg:  Solving for p, Initial residual = 0.2848, Final residual = 9.60472e-05, No Iterations 764
linear solve p 727301
time step continuity errors : sum local = 2.6319e-09, global = -2.36738e-22, cumulative = -5.28767e-22
ExecutionTime = 3.99 s  ClockTime = 4 s

Time = 0.0003

Courant Number mean: 0.00317979 max: 0.0721774
DILUPBiCGStab:  Solving for Ux, Initial residual = 0.0963257, Final residual = 1.32282e-06, No Iterations 5
DILUPBiCGStab:  Solving for Uy, Initial residual = 0.140691, Final residual = 8.28975e-07, No Iterations 5
DILUPBiCGStab:  Solving for Uz, Initial residual = 0.205642, Final residual = 1.31881e-06, No Iterations 5
linear solve U 58576
PETSc-cg:  Solving for p, Initial residual = 0.128594, Final residual = 9.76499e-05, No Iterations 743
linear solve p 752033
time step continuity errors : sum local = 2.30097e-09, global = -5.27599e-22, cumulative = -1.05637e-21
PETSc-cg:  Solving for p, Initial residual = 0.0996264, Final residual = 9.98455e-05, No Iterations 736
linear solve p 700138
time step continuity errors : sum local = 2.38329e-09, global = 7.90831e-22, cumulative = -2.65535e-22
ExecutionTime = 5.58 s  ClockTime = 6 s

Time = 0.0004

Courant Number mean: 0.00397984 max: 0.0793325
DILUPBiCGStab:  Solving for Ux, Initial residual = 0.0593651, Final residual = 6.4792e-07, No Iterations 5
DILUPBiCGStab:  Solving for Uy, Initial residual = 0.0868087, Final residual = 4.76576e-07, No Iterations 5
DILUPBiCGStab:  Solving for Uz, Initial residual = 0.127065, Final residual = 6.43256e-07, No Iterations 5
linear solve U 57925
PETSc-cg:  Solving for p, Initial residual = 0.0642954, Final residual = 9.69204e-05, No Iterations 729
linear solve p 692680
time step continuity errors : sum local = 2.24706e-09, global = -6.08642e-22, cumulative = -8.74177e-22
PETSc-cg:  Solving for p, Initial residual = 0.0497292, Final residual = 9.95346e-05, No Iterations 719
linear solve p 718999
time step continuity errors : sum local = 2.3435e-09, global = -1.51038e-22, cumulative = -1.02522e-21
ExecutionTime = 7.11 s  ClockTime = 7 s

Time = 0.0005

Courant Number mean: 0.00460129 max: 0.082885
DILUPBiCGStab:  Solving for Ux, Initial residual = 0.04286, Final residual = 4.33455e-07, No Iterations 5
DILUPBiCGStab:  Solving for Uy, Initial residual = 0.061865, Final residual = 3.0539e-07, No Iterations 5
DILUPBiCGStab:  Solving for Uz, Initial residual = 0.0971304, Final residual = 4.31176e-07, No Iterations 5
linear solve U 59224
PETSc-cg:  Solving for p, Initial residual = 0.0389526, Final residual = 9.91458e-05, No Iterations 402
linear solve p 383209
time step continuity errors : sum local = 2.66912e-09, global = -7.93721e-22, cumulative = -1.81894e-21
PETSc-cg:  Solving for p, Initial residual = 0.0305805, Final residual = 9.87093e-05, No Iterations 339
linear solve p 335669
time step continuity errors : sum local = 2.4674e-09, global = -1.03307e-21, cumulative = -2.852e-21
ExecutionTime = 7.95 s  ClockTime = 8 s

Time = 0.0006

Courant Number mean: 0.00511864 max: 0.0850107
DILUPBiCGStab:  Solving for Ux, Initial residual = 0.0336701, Final residual = 3.01912e-07, No Iterations 5
DILUPBiCGStab:  Solving for Uy, Initial residual = 0.0480493, Final residual = 2.07086e-07, No Iterations 5
DILUPBiCGStab:  Solving for Uz, Initial residual = 0.0802522, Final residual = 3.46141e-07, No Iterations 5
linear solve U 55723
PETSc-cg:  Solving for p, Initial residual = 0.0269266, Final residual = 9.75843e-05, No Iterations 341
linear solve p 327890
time step continuity errors : sum local = 2.54896e-09, global = -6.37105e-22, cumulative = -3.48911e-21
PETSc-cg:  Solving for p, Initial residual = 0.0213666, Final residual = 9.58222e-05, No Iterations 312
linear solve p 298271
time step continuity errors : sum local = 2.43152e-09, global = -8.96829e-22, cumulative = -4.38594e-21
ExecutionTime = 8.7 s  ClockTime = 9 s

Time = 0.0007

Courant Number mean: 0.00556497 max: 0.0864549
DILUPBiCGStab:  Solving for Ux, Initial residual = 0.0277666, Final residual = 2.24622e-07, No Iterations 5
DILUPBiCGStab:  Solving for Uy, Initial residual = 0.0392375, Final residual = 1.50307e-07, No Iterations 5
DILUPBiCGStab:  Solving for Uz, Initial residual = 0.0677355, Final residual = 2.84431e-07, No Iterations 5
linear solve U 58255
PETSc-cg:  Solving for p, Initial residual = 0.0207662, Final residual = 9.68089e-05, No Iterations 301
linear solve p 289166
time step continuity errors : sum local = 2.58652e-09, global = 1.30519e-22, cumulative = -4.25542e-21
PETSc-cg:  Solving for p, Initial residual = 0.0165027, Final residual = 9.75486e-05, No Iterations 293
linear solve p 288120
time step continuity errors : sum local = 2.5231e-09, global = -1.98312e-21, cumulative = -6.23854e-21
ExecutionTime = 9.38 s  ClockTime = 10 s

Time = 0.0008

Courant Number mean: 0.0059623 max: 0.0875192
DILUPBiCGStab:  Solving for Ux, Initial residual = 0.0236243, Final residual = 1.79827e-07, No Iterations 5
DILUPBiCGStab:  Solving for Uy, Initial residual = 0.0331355, Final residual = 1.16271e-07, No Iterations 5
DILUPBiCGStab:  Solving for Uz, Initial residual = 0.0588645, Final residual = 2.31578e-07, No Iterations 5
linear solve U 62795
PETSc-cg:  Solving for p, Initial residual = 0.0166953, Final residual = 9.75738e-05, No Iterations 294
linear solve p 294295
time step continuity errors : sum local = 2.61581e-09, global = -1.34278e-21, cumulative = -7.58132e-21
PETSc-cg:  Solving for p, Initial residual = 0.0133989, Final residual = 9.90314e-05, No Iterations 287
linear solve p 295670
time step continuity errors : sum local = 2.59297e-09, global = -1.34677e-21, cumulative = -8.9281e-21
ExecutionTime = 10.1 s  ClockTime = 10 s

Time = 0.0009

Courant Number mean: 0.00631847 max: 0.0883466
DILUPBiCGStab:  Solving for Ux, Initial residual = 0.0205606, Final residual = 1.48238e-07, No Iterations 5
DILUPBiCGStab:  Solving for Uy, Initial residual = 0.0286497, Final residual = 9.46978e-08, No Iterations 5
DILUPBiCGStab:  Solving for Uz, Initial residual = 0.0520006, Final residual = 1.88111e-07, No Iterations 5
linear solve U 58457
PETSc-cg:  Solving for p, Initial residual = 0.0139014, Final residual = 9.8519e-05, No Iterations 288
linear solve p 275533
time step continuity errors : sum local = 2.66031e-09, global = -8.27822e-22, cumulative = -9.75592e-21
PETSc-cg:  Solving for p, Initial residual = 0.0112136, Final residual = 9.7765e-05, No Iterations 283
linear solve p 270573
time step continuity errors : sum local = 2.59263e-09, global = -3.18444e-22, cumulative = -1.00744e-20
ExecutionTime = 10.75 s  ClockTime = 11 s

Time = 0.001

Courant Number mean: 0.00664438 max: 0.089014
DILUPBiCGStab:  Solving for Ux, Initial residual = 0.0181846, Final residual = 1.24767e-07, No Iterations 5
DILUPBiCGStab:  Solving for Uy, Initial residual = 0.0252123, Final residual = 7.97631e-08, No Iterations 5
DILUPBiCGStab:  Solving for Uz, Initial residual = 0.0465144, Final residual = 1.53941e-07, No Iterations 5
linear solve U 55950
PETSc-cg:  Solving for p, Initial residual = 0.0118828, Final residual = 9.90165e-05, No Iterations 285
linear solve p 289420
time step continuity errors : sum local = 2.68845e-09, global = -7.24052e-22, cumulative = -1.07984e-20
PETSc-cg:  Solving for p, Initial residual = 0.00962396, Final residual = 9.93689e-05, No Iterations 280
linear solve p 268908
time step continuity errors : sum local = 2.65642e-09, global = -1.95717e-21, cumulative = -1.27556e-20
ExecutionTime = 11.41 s  ClockTime = 12 s

Time = 0.0011

Courant Number mean: 0.00694533 max: 0.0895672
DILUPBiCGStab:  Solving for Ux, Initial residual = 0.016298, Final residual = 1.06874e-07, No Iterations 5
DILUPBiCGStab:  Solving for Uy, Initial residual = 0.0224933, Final residual = 6.88018e-08, No Iterations 5
DILUPBiCGStab:  Solving for Uz, Initial residual = 0.0420332, Final residual = 1.26994e-07, No Iterations 5
linear solve U 55660
PETSc-cg:  Solving for p, Initial residual = 0.0102908, Final residual = 9.99403e-05, No Iterations 282
linear solve p 270719
time step continuity errors : sum local = 2.72653e-09, global = -8.99042e-22, cumulative = -1.36546e-20
PETSc-cg:  Solving for p, Initial residual = 0.00836591, Final residual = 9.51471e-05, No Iterations 278
linear solve p 268553
time step continuity errors : sum local = 2.57467e-09, global = -1.10518e-21, cumulative = -1.47598e-20
ExecutionTime = 12.04 s  ClockTime = 12 s

Time = 0.0012

Courant Number mean: 0.00722379 max: 0.0900355
DILUPBiCGStab:  Solving for Ux, Initial residual = 0.0147479, Final residual = 9.27226e-08, No Iterations 5
DILUPBiCGStab:  Solving for Uy, Initial residual = 0.0202888, Final residual = 6.04224e-08, No Iterations 5
DILUPBiCGStab:  Solving for Uz, Initial residual = 0.0383081, Final residual = 1.06036e-07, No Iterations 5
linear solve U 57366
PETSc-cg:  Solving for p, Initial residual = 0.00906315, Final residual = 9.63473e-05, No Iterations 279
linear solve p 270585
time step continuity errors : sum local = 2.65254e-09, global = 1.40455e-22, cumulative = -1.46193e-20
PETSc-cg:  Solving for p, Initial residual = 0.0073989, Final residual = 9.59416e-05, No Iterations 275
linear solve p 268838
time step continuity errors : sum local = 2.61214e-09, global = -7.85077e-22, cumulative = -1.54044e-20
ExecutionTime = 12.69 s  ClockTime = 13 s

Time = 0.0013

Courant Number mean: 0.00748302 max: 0.0904386
DILUPBiCGStab:  Solving for Ux, Initial residual = 0.0134667, Final residual = 8.138e-08, No Iterations 5
DILUPBiCGStab:  Solving for Uy, Initial residual = 0.0184656, Final residual = 5.38419e-08, No Iterations 5
DILUPBiCGStab:  Solving for Uz, Initial residual = 0.0351661, Final residual = 8.99841e-08, No Iterations 5
linear solve U 57174
PETSc-cg:  Solving for p, Initial residual = 0.00809217, Final residual = 9.7621e-05, No Iterations 276
linear solve p 277163
time step continuity errors : sum local = 2.69596e-09, global = -1.56784e-21, cumulative = -1.69723e-20
PETSc-cg:  Solving for p, Initial residual = 0.00662719, Final residual = 9.89347e-05, No Iterations 271
linear solve p 266459
time step continuity errors : sum local = 2.70144e-09, global = -5.98486e-22, cumulative = -1.75708e-20
ExecutionTime = 13.35 s  ClockTime = 14 s

Time = 0.0014

Courant Number mean: 0.00772783 max: 0.0907903
DILUPBiCGStab:  Solving for Ux, Initial residual = 0.0123791, Final residual = 7.22182e-08, No Iterations 5
DILUPBiCGStab:  Solving for Uy, Initial residual = 0.0169327, Final residual = 4.85725e-08, No Iterations 5
DILUPBiCGStab:  Solving for Uz, Initial residual = 0.0324804, Final residual = 7.77835e-08, No Iterations 5
linear solve U 58533
PETSc-cg:  Solving for p, Initial residual = 0.00727825, Final residual = 9.96347e-05, No Iterations 274
linear solve p 264806
time step continuity errors : sum local = 2.75661e-09, global = -1.25982e-21, cumulative = -1.88306e-20
PETSc-cg:  Solving for p, Initial residual = 0.00597753, Final residual = 9.69236e-05, No Iterations 270
linear solve p 259374
time step continuity errors : sum local = 2.66589e-09, global = -1.01805e-22, cumulative = -1.89324e-20
ExecutionTime = 13.98 s  ClockTime = 14 s

Time = 0.0015

Courant Number mean: 0.00795861 max: 0.0911005
DILUPBiCGStab:  Solving for Ux, Initial residual = 0.0114468, Final residual = 6.47092e-08, No Iterations 5
DILUPBiCGStab:  Solving for Uy, Initial residual = 0.0156261, Final residual = 4.42826e-08, No Iterations 5
DILUPBiCGStab:  Solving for Uz, Initial residual = 0.0301591, Final residual = 6.86073e-08, No Iterations 5
linear solve U 55028
PETSc-cg:  Solving for p, Initial residual = 0.00657916, Final residual = 9.83041e-05, No Iterations 271
linear solve p 265701
time step continuity errors : sum local = 2.73342e-09, global = -7.37225e-22, cumulative = -1.96696e-20
PETSc-cg:  Solving for p, Initial residual = 0.00542494, Final residual = 9.81095e-05, No Iterations 266
linear solve p 255096
time step continuity errors : sum local = 2.70731e-09, global = -7.66259e-22, cumulative = -2.04359e-20
ExecutionTime = 14.6 s  ClockTime = 15 s

Time = 0.0016

Courant Number mean: 0.00817648 max: 0.0913769
DILUPBiCGStab:  Solving for Ux, Initial residual = 0.0106404, Final residual = 5.84759e-08, No Iterations 5
DILUPBiCGStab:  Solving for Uy, Initial residual = 0.0144993, Final residual = 4.07414e-08, No Iterations 5
DILUPBiCGStab:  Solving for Uz, Initial residual = 0.0281339, Final residual = 6.15929e-08, No Iterations 5
linear solve U 55004
PETSc-cg:  Solving for p, Initial residual = 0.00603157, Final residual = 9.88316e-05, No Iterations 271
linear solve p 263378
time step continuity errors : sum local = 2.75582e-09, global = -5.4263e-22, cumulative = -2.09785e-20
PETSc-cg:  Solving for p, Initial residual = 0.00496438, Final residual = 9.4807e-05, No Iterations 265
linear solve p 255370
time step continuity errors : sum local = 2.63685e-09, global = -1.35304e-21, cumulative = -2.23315e-20
ExecutionTime = 15.21 s  ClockTime = 16 s

Time = 0.0017

Courant Number mean: 0.00838249 max: 0.0916252
DILUPBiCGStab:  Solving for Ux, Initial residual = 0.00993236, Final residual = 5.32473e-08, No Iterations 5
DILUPBiCGStab:  Solving for Uy, Initial residual = 0.0135175, Final residual = 3.77632e-08, No Iterations 5
DILUPBiCGStab:  Solving for Uz, Initial residual = 0.0263513, Final residual = 5.60498e-08, No Iterations 5
linear solve U 55587
PETSc-cg:  Solving for p, Initial residual = 0.00548819, Final residual = 9.83252e-05, No Iterations 269
linear solve p 258222
time step continuity errors : sum local = 2.75109e-09, global = -5.43334e-22, cumulative = -2.28749e-20
PETSc-cg:  Solving for p, Initial residual = 0.00454068, Final residual = 9.82247e-05, No Iterations 262
linear solve p 253896
time step continuity errors : sum local = 2.73076e-09, global = -1.55671e-21, cumulative = -2.44316e-20
ExecutionTime = 15.82 s  ClockTime = 16 s

Time = 0.0018

Courant Number mean: 0.00857955 max: 0.0918496
DILUPBiCGStab:  Solving for Ux, Initial residual = 0.00931094, Final residual = 4.88212e-08, No Iterations 5
DILUPBiCGStab:  Solving for Uy, Initial residual = 0.0126547, Final residual = 3.52216e-08, No Iterations 5
DILUPBiCGStab:  Solving for Uz, Initial residual = 0.0247711, Final residual = 5.16727e-08, No Iterations 5
linear solve U 65272
PETSc-cg:  Solving for p, Initial residual = 0.00508245, Final residual = 9.92665e-05, No Iterations 265
linear solve p 258986
time step continuity errors : sum local = 2.78188e-09, global = -2.66331e-22, cumulative = -2.46979e-20
PETSc-cg:  Solving for p, Initial residual = 0.00421411, Final residual = 9.62275e-05, No Iterations 261
linear solve p 255134
time step continuity errors : sum local = 2.69003e-09, global = -8.68933e-22, cumulative = -2.55668e-20
ExecutionTime = 16.44 s  ClockTime = 17 s

Time = 0.0019

Courant Number mean: 0.00876813 max: 0.0920539
DILUPBiCGStab:  Solving for Ux, Initial residual = 0.0087581, Final residual = 4.50248e-08, No Iterations 5
DILUPBiCGStab:  Solving for Uy, Initial residual = 0.0118904, Final residual = 3.30252e-08, No Iterations 5
DILUPBiCGStab:  Solving for Uz, Initial residual = 0.0233606, Final residual = 4.8094e-08, No Iterations 5
linear solve U 59004
PETSc-cg:  Solving for p, Initial residual = 0.00474488, Final residual = 9.94445e-05, No Iterations 265
linear solve p 255224
time step continuity errors : sum local = 2.79289e-09, global = -5.28982e-22, cumulative = -2.60958e-20
PETSc-cg:  Solving for p, Initial residual = 0.00394124, Final residual = 9.96273e-05, No Iterations 259
linear solve p 257843
time step continuity errors : sum local = 2.78219e-09, global = -5.75242e-22, cumulative = -2.66711e-20
ExecutionTime = 17.07 s  ClockTime = 17 s

Time = 0.002

Courant Number mean: 0.00894849 max: 0.0922409
DILUPBiCGStab:  Solving for Ux, Initial residual = 0.00826098, Final residual = 4.17331e-08, No Iterations 5
DILUPBiCGStab:  Solving for Uy, Initial residual = 0.0112088, Final residual = 3.1107e-08, No Iterations 5
DILUPBiCGStab:  Solving for Uz, Initial residual = 0.0220943, Final residual = 4.50777e-08, No Iterations 5
linear solve U 55002
PETSc-cg:  Solving for p, Initial residual = 0.00439602, Final residual = 9.8718e-05, No Iterations 263
linear solve p 255438
time step continuity errors : sum local = 2.78089e-09, global = -5.45898e-22, cumulative = -2.7217e-20
PETSc-cg:  Solving for p, Initial residual = 0.00365412, Final residual = 9.93377e-05, No Iterations 252
linear solve p 245763
time step continuity errors : sum local = 2.7821e-09, global = 3.78166e-22, cumulative = -2.68388e-20
ExecutionTime = 17.67 s  ClockTime = 18 s

End

Finalizing PETSc
Finalising parallel run
================================================================================
hash: fe7e366411e1b7b6076fd55f6607bfc0
/*---------------------------------------------------------------------------*\
| =========                 |                                                 |
| \\      /  F ield         | OpenFOAM: The Open Source CFD Toolbox           |
|  \\    /   O peration     | Version:  v2106                                 |
|   \\  /    A nd           | Website:  www.openfoam.com                      |
|    \\/     M anipulation  |                                                 |
\*---------------------------------------------------------------------------*/
Build  : f815a12bba-20210902 OPENFOAM=2106
Arch   : "LSB;label=32;scalar=64"
Exec   : icoFoam -parallel
Date   : Aug 05 2022
Time   : 16:17:33
Host   : nla-gpu2.ianm.kit.edu
PID    : 11175
I/O    : uncollated
Case   : /home/greole/data/code/ogl_labbook/lidDrivenCavity/single_node/mesh/100/matrix_solver/CG_NoPrecond_PETSC_HIP/mpiRank_of/32/base
nProcs : 32
Hosts  :
(
    (nla-gpu2.ianm.kit.edu 32)
)
Pstream initialized with:
    floatTransfer      : 0
    nProcsSimpleSum    : 0
    commsType          : nonBlocking
    polling iterations : 0
trapFpe: Floating point exception trapping enabled (FOAM_SIGFPE).
fileModificationChecking : Monitoring run-time modified files using timeStampMaster (fileModificationSkew 5, maxFileModificationPolls 20)
allowSystemOperations : Allowing user-supplied system call operations

// * * * * * * * * * * * * * * * * * * * * * * * * * * * * * * * * * * * * * //
Create time

Create mesh for time = 0


PISO: Operating solver in PISO mode

Reading transportProperties

Reading field p

Reading field U

Reading/calculating face flux field phi


Starting time loop

Time = 0.0001

Courant Number mean: 0 max: 0
DILUPBiCGStab:  Solving for Ux, Initial residual = 1, Final residual = 5.11961e-06, No Iterations 5
DILUPBiCGStab:  Solving for Uy:  solution singularity
DILUPBiCGStab:  Solving for Uz:  solution singularity
linear solve U 47634
Initializing PETSc
PETSc-cg:  Solving for p, Initial residual = 1, Final residual = 9.68152e-05, No Iterations 794
linear solve p 509560
time step continuity errors : sum local = 1.71048e-09, global = -1.19589e-21, cumulative = -1.19589e-21
PETSc-cg:  Solving for p, Initial residual = 0.559986, Final residual = 9.75196e-05, No Iterations 777
linear solve p 462843
time step continuity errors : sum local = 2.66754e-09, global = -3.80438e-22, cumulative = -1.57633e-21
ExecutionTime = 1.69 s  ClockTime = 2 s

Time = 0.0002

Courant Number mean: 0.00201332 max: 0.0540371
DILUPBiCGStab:  Solving for Ux, Initial residual = 0.216464, Final residual = 4.03946e-06, No Iterations 5
DILUPBiCGStab:  Solving for Uy, Initial residual = 0.309938, Final residual = 3.41666e-06, No Iterations 5
DILUPBiCGStab:  Solving for Uz, Initial residual = 0.98131, Final residual = 9.74794e-06, No Iterations 5
linear solve U 30120
PETSc-cg:  Solving for p, Initial residual = 0.381697, Final residual = 9.12476e-05, No Iterations 769
linear solve p 414388
time step continuity errors : sum local = 2.38645e-09, global = -4.72162e-22, cumulative = -2.04849e-21
PETSc-cg:  Solving for p, Initial residual = 0.284805, Final residual = 9.60948e-05, No Iterations 764
linear solve p 414527
time step continuity errors : sum local = 2.63323e-09, global = -6.22468e-22, cumulative = -2.67096e-21
ExecutionTime = 2.65 s  ClockTime = 3 s

Time = 0.0003

Courant Number mean: 0.00317979 max: 0.0721774
DILUPBiCGStab:  Solving for Ux, Initial residual = 0.0963257, Final residual = 1.67916e-06, No Iterations 5
DILUPBiCGStab:  Solving for Uy, Initial residual = 0.140691, Final residual = 1.46743e-06, No Iterations 5
DILUPBiCGStab:  Solving for Uz, Initial residual = 0.205664, Final residual = 2.19577e-06, No Iterations 5
linear solve U 36300
PETSc-cg:  Solving for p, Initial residual = 0.128588, Final residual = 9.75761e-05, No Iterations 743
linear solve p 424606
time step continuity errors : sum local = 2.29922e-09, global = -1.5347e-21, cumulative = -4.20566e-21
PETSc-cg:  Solving for p, Initial residual = 0.0996221, Final residual = 9.97911e-05, No Iterations 736
linear solve p 402668
time step continuity errors : sum local = 2.38198e-09, global = -1.049e-21, cumulative = -5.25466e-21
ExecutionTime = 3.6 s  ClockTime = 4 s

Time = 0.0004

Courant Number mean: 0.00397984 max: 0.0793325
DILUPBiCGStab:  Solving for Ux, Initial residual = 0.0593651, Final residual = 8.48476e-07, No Iterations 5
DILUPBiCGStab:  Solving for Uy, Initial residual = 0.0868086, Final residual = 7.57959e-07, No Iterations 5
DILUPBiCGStab:  Solving for Uz, Initial residual = 0.127078, Final residual = 9.71776e-07, No Iterations 5
linear solve U 35296
PETSc-cg:  Solving for p, Initial residual = 0.064299, Final residual = 9.69277e-05, No Iterations 729
linear solve p 395581
time step continuity errors : sum local = 2.24724e-09, global = -1.14995e-21, cumulative = -6.40461e-21
PETSc-cg:  Solving for p, Initial residual = 0.0497323, Final residual = 9.98914e-05, No Iterations 719
linear solve p 406927
time step continuity errors : sum local = 2.35191e-09, global = -4.16201e-22, cumulative = -6.82081e-21
ExecutionTime = 4.5 s  ClockTime = 5 s

Time = 0.0005

Courant Number mean: 0.00460129 max: 0.082885
DILUPBiCGStab:  Solving for Ux, Initial residual = 0.0428599, Final residual = 5.81762e-07, No Iterations 5
DILUPBiCGStab:  Solving for Uy, Initial residual = 0.0618649, Final residual = 4.25782e-07, No Iterations 5
DILUPBiCGStab:  Solving for Uz, Initial residual = 0.0971403, Final residual = 6.06993e-07, No Iterations 5
linear solve U 34391
PETSc-cg:  Solving for p, Initial residual = 0.0389517, Final residual = 9.91551e-05, No Iterations 402
linear solve p 220550
time step continuity errors : sum local = 2.66932e-09, global = -7.65266e-22, cumulative = -7.58608e-21
PETSc-cg:  Solving for p, Initial residual = 0.0305798, Final residual = 9.88145e-05, No Iterations 339
linear solve p 185024
time step continuity errors : sum local = 2.46989e-09, global = -6.57092e-22, cumulative = -8.24317e-21
ExecutionTime = 5.02 s  ClockTime = 5 s

Time = 0.0006

Courant Number mean: 0.00511864 max: 0.0850107
DILUPBiCGStab:  Solving for Ux, Initial residual = 0.0336701, Final residual = 4.249e-07, No Iterations 5
DILUPBiCGStab:  Solving for Uy, Initial residual = 0.0480492, Final residual = 2.6857e-07, No Iterations 5
DILUPBiCGStab:  Solving for Uz, Initial residual = 0.0802598, Final residual = 4.76986e-07, No Iterations 5
linear solve U 30723
PETSc-cg:  Solving for p, Initial residual = 0.0269297, Final residual = 9.76549e-05, No Iterations 341
linear solve p 185980
time step continuity errors : sum local = 2.55063e-09, global = -1.44e-21, cumulative = -9.68317e-21
PETSc-cg:  Solving for p, Initial residual = 0.0213698, Final residual = 9.5663e-05, No Iterations 312
linear solve p 180863
time step continuity errors : sum local = 2.42773e-09, global = -1.9269e-21, cumulative = -1.16101e-20
ExecutionTime = 5.48 s  ClockTime = 6 s

Time = 0.0007

Courant Number mean: 0.00556497 max: 0.0864549
DILUPBiCGStab:  Solving for Ux, Initial residual = 0.0277666, Final residual = 3.23588e-07, No Iterations 5
DILUPBiCGStab:  Solving for Uy, Initial residual = 0.0392374, Final residual = 1.94328e-07, No Iterations 5
DILUPBiCGStab:  Solving for Uz, Initial residual = 0.0677421, Final residual = 3.85034e-07, No Iterations 5
linear solve U 34432
PETSc-cg:  Solving for p, Initial residual = 0.0207675, Final residual = 9.67386e-05, No Iterations 301
linear solve p 165702
time step continuity errors : sum local = 2.58483e-09, global = -1.3032e-21, cumulative = -1.29133e-20
PETSc-cg:  Solving for p, Initial residual = 0.0165044, Final residual = 9.73978e-05, No Iterations 293
linear solve p 161220
time step continuity errors : sum local = 2.51948e-09, global = -1.46837e-21, cumulative = -1.43816e-20
ExecutionTime = 5.9 s  ClockTime = 6 s

Time = 0.0008

Courant Number mean: 0.0059623 max: 0.0875193
DILUPBiCGStab:  Solving for Ux, Initial residual = 0.0236243, Final residual = 2.61674e-07, No Iterations 5
DILUPBiCGStab:  Solving for Uy, Initial residual = 0.0331355, Final residual = 1.5442e-07, No Iterations 5
DILUPBiCGStab:  Solving for Uz, Initial residual = 0.0588704, Final residual = 3.08943e-07, No Iterations 5
linear solve U 33577
PETSc-cg:  Solving for p, Initial residual = 0.0166958, Final residual = 9.78818e-05, No Iterations 294
linear solve p 161961
time step continuity errors : sum local = 2.62321e-09, global = -1.83157e-21, cumulative = -1.62132e-20
PETSc-cg:  Solving for p, Initial residual = 0.0133993, Final residual = 9.87332e-05, No Iterations 287
linear solve p 157709
time step continuity errors : sum local = 2.58578e-09, global = -2.32742e-21, cumulative = -1.85406e-20
ExecutionTime = 6.3 s  ClockTime = 6 s

Time = 0.0009

Courant Number mean: 0.00631847 max: 0.0883466
DILUPBiCGStab:  Solving for Ux, Initial residual = 0.0205606, Final residual = 2.16779e-07, No Iterations 5
DILUPBiCGStab:  Solving for Uy, Initial residual = 0.0286497, Final residual = 1.29183e-07, No Iterations 5
DILUPBiCGStab:  Solving for Uz, Initial residual = 0.0520057, Final residual = 2.55242e-07, No Iterations 5
linear solve U 31531
PETSc-cg:  Solving for p, Initial residual = 0.0139029, Final residual = 9.90083e-05, No Iterations 288
linear solve p 164708
time step continuity errors : sum local = 2.67213e-09, global = -1.85491e-21, cumulative = -2.03955e-20
PETSc-cg:  Solving for p, Initial residual = 0.0112151, Final residual = 9.7597e-05, No Iterations 283
linear solve p 169391
time step continuity errors : sum local = 2.58856e-09, global = -1.69721e-21, cumulative = -2.20927e-20
ExecutionTime = 6.71 s  ClockTime = 7 s

Time = 0.001

Courant Number mean: 0.00664438 max: 0.089014
DILUPBiCGStab:  Solving for Ux, Initial residual = 0.0181846, Final residual = 1.82148e-07, No Iterations 5
DILUPBiCGStab:  Solving for Uy, Initial residual = 0.0252122, Final residual = 1.11408e-07, No Iterations 5
DILUPBiCGStab:  Solving for Uz, Initial residual = 0.0465187, Final residual = 2.20618e-07, No Iterations 5
linear solve U 33108
PETSc-cg:  Solving for p, Initial residual = 0.0118838, Final residual = 9.92334e-05, No Iterations 285
linear solve p 159764
time step continuity errors : sum local = 2.69371e-09, global = -2.21298e-21, cumulative = -2.43057e-20
PETSc-cg:  Solving for p, Initial residual = 0.00962496, Final residual = 9.93683e-05, No Iterations 280
linear solve p 153808
time step continuity errors : sum local = 2.65641e-09, global = -9.34363e-22, cumulative = -2.52401e-20
ExecutionTime = 7.1 s  ClockTime = 7 s

Time = 0.0011

Courant Number mean: 0.00694533 max: 0.0895673
DILUPBiCGStab:  Solving for Ux, Initial residual = 0.016298, Final residual = 1.5498e-07, No Iterations 5
DILUPBiCGStab:  Solving for Uy, Initial residual = 0.0224932, Final residual = 9.81169e-08, No Iterations 5
DILUPBiCGStab:  Solving for Uz, Initial residual = 0.042037, Final residual = 1.969e-07, No Iterations 5
linear solve U 35693
PETSc-cg:  Solving for p, Initial residual = 0.0102912, Final residual = 9.84939e-05, No Iterations 283
linear solve p 154939
time step continuity errors : sum local = 2.69147e-09, global = -9.34466e-22, cumulative = -2.61746e-20
PETSc-cg:  Solving for p, Initial residual = 0.00836046, Final residual = 9.49997e-05, No Iterations 278
linear solve p 153211
time step continuity errors : sum local = 2.57122e-09, global = -2.54956e-21, cumulative = -2.87241e-20
ExecutionTime = 7.5 s  ClockTime = 8 s

Time = 0.0012

Courant Number mean: 0.0072238 max: 0.0900356
DILUPBiCGStab:  Solving for Ux, Initial residual = 0.0147479, Final residual = 1.33541e-07, No Iterations 5
DILUPBiCGStab:  Solving for Uy, Initial residual = 0.0202888, Final residual = 8.7765e-08, No Iterations 5
DILUPBiCGStab:  Solving for Uz, Initial residual = 0.038311, Final residual = 1.79027e-07, No Iterations 5
linear solve U 36398
PETSc-cg:  Solving for p, Initial residual = 0.00904511, Final residual = 9.76134e-05, No Iterations 279
linear solve p 156055
time step continuity errors : sum local = 2.68331e-09, global = -2.36863e-21, cumulative = -3.10927e-20
PETSc-cg:  Solving for p, Initial residual = 0.007385, Final residual = 9.84071e-05, No Iterations 275
linear solve p 151149
time step continuity errors : sum local = 2.67241e-09, global = -1.72862e-21, cumulative = -3.28214e-20
ExecutionTime = 7.89 s  ClockTime = 8 s

Time = 0.0013

Courant Number mean: 0.00748302 max: 0.0904386
DILUPBiCGStab:  Solving for Ux, Initial residual = 0.0134667, Final residual = 1.16451e-07, No Iterations 5
DILUPBiCGStab:  Solving for Uy, Initial residual = 0.0184655, Final residual = 7.94789e-08, No Iterations 5
DILUPBiCGStab:  Solving for Uz, Initial residual = 0.0351691, Final residual = 1.64384e-07, No Iterations 5
linear solve U 32419
PETSc-cg:  Solving for p, Initial residual = 0.0080939, Final residual = 9.75388e-05, No Iterations 276
linear solve p 153453
time step continuity errors : sum local = 2.69395e-09, global = -1.70844e-21, cumulative = -3.45298e-20
PETSc-cg:  Solving for p, Initial residual = 0.00662863, Final residual = 9.96906e-05, No Iterations 271
linear solve p 148942
time step continuity errors : sum local = 2.71997e-09, global = -7.95872e-22, cumulative = -3.53257e-20
ExecutionTime = 8.27 s  ClockTime = 8 s

Time = 0.0014

Courant Number mean: 0.00772784 max: 0.0907903
DILUPBiCGStab:  Solving for Ux, Initial residual = 0.0123791, Final residual = 1.02685e-07, No Iterations 5
DILUPBiCGStab:  Solving for Uy, Initial residual = 0.0169327, Final residual = 7.27048e-08, No Iterations 5
DILUPBiCGStab:  Solving for Uz, Initial residual = 0.0324831, Final residual = 1.51562e-07, No Iterations 5
linear solve U 29673
PETSc-cg:  Solving for p, Initial residual = 0.00727972, Final residual = 9.82432e-05, No Iterations 274
linear solve p 151707
time step continuity errors : sum local = 2.72245e-09, global = -2.63132e-21, cumulative = -3.7957e-20
PETSc-cg:  Solving for p, Initial residual = 0.00597883, Final residual = 9.7126e-05, No Iterations 270
linear solve p 148474
time step continuity errors : sum local = 2.67086e-09, global = -5.36489e-22, cumulative = -3.84935e-20
ExecutionTime = 8.64 s  ClockTime = 9 s

Time = 0.0015

Courant Number mean: 0.00795861 max: 0.0911006
DILUPBiCGStab:  Solving for Ux, Initial residual = 0.0114468, Final residual = 9.14637e-08, No Iterations 5
DILUPBiCGStab:  Solving for Uy, Initial residual = 0.0156261, Final residual = 6.70755e-08, No Iterations 5
DILUPBiCGStab:  Solving for Uz, Initial residual = 0.0301614, Final residual = 1.39891e-07, No Iterations 5
linear solve U 32244
PETSc-cg:  Solving for p, Initial residual = 0.0065794, Final residual = 9.83623e-05, No Iterations 271
linear solve p 151160
time step continuity errors : sum local = 2.73484e-09, global = -1.42776e-21, cumulative = -3.99212e-20
PETSc-cg:  Solving for p, Initial residual = 0.00542534, Final residual = 9.86038e-05, No Iterations 266
linear solve p 152136
time step continuity errors : sum local = 2.71948e-09, global = -2.31106e-21, cumulative = -4.22323e-20
ExecutionTime = 9.03 s  ClockTime = 9 s

Time = 0.0016

Courant Number mean: 0.00817649 max: 0.0913769
DILUPBiCGStab:  Solving for Ux, Initial residual = 0.0106404, Final residual = 8.21873e-08, No Iterations 5
DILUPBiCGStab:  Solving for Uy, Initial residual = 0.0144993, Final residual = 6.23318e-08, No Iterations 5
DILUPBiCGStab:  Solving for Uz, Initial residual = 0.028136, Final residual = 1.29221e-07, No Iterations 5
linear solve U 30357
PETSc-cg:  Solving for p, Initial residual = 0.00603103, Final residual = 9.85771e-05, No Iterations 271
linear solve p 162051
time step continuity errors : sum local = 2.74954e-09, global = -8.97905e-22, cumulative = -4.31302e-20
PETSc-cg:  Solving for p, Initial residual = 0.00496403, Final residual = 9.48642e-05, No Iterations 265
linear solve p 149288
time step continuity errors : sum local = 2.63826e-09, global = -1.188e-21, cumulative = -4.43182e-20
ExecutionTime = 9.4 s  ClockTime = 10 s

Time = 0.0017

Courant Number mean: 0.00838249 max: 0.0916252
DILUPBiCGStab:  Solving for Ux, Initial residual = 0.00993237, Final residual = 7.4453e-08, No Iterations 5
DILUPBiCGStab:  Solving for Uy, Initial residual = 0.0135175, Final residual = 5.8277e-08, No Iterations 5
DILUPBiCGStab:  Solving for Uz, Initial residual = 0.0263532, Final residual = 1.19366e-07, No Iterations 5
linear solve U 32680
PETSc-cg:  Solving for p, Initial residual = 0.00548755, Final residual = 9.985e-05, No Iterations 266
linear solve p 149159
time step continuity errors : sum local = 2.78843e-09, global = -2.93953e-21, cumulative = -4.72577e-20
PETSc-cg:  Solving for p, Initial residual = 0.00454712, Final residual = 9.65133e-05, No Iterations 263
linear solve p 146627
time step continuity errors : sum local = 2.68842e-09, global = -1.71311e-21, cumulative = -4.89708e-20
ExecutionTime = 9.78 s  ClockTime = 10 s

Time = 0.0018

Courant Number mean: 0.00857955 max: 0.0918497
DILUPBiCGStab:  Solving for Ux, Initial residual = 0.00931096, Final residual = 6.79455e-08, No Iterations 5
DILUPBiCGStab:  Solving for Uy, Initial residual = 0.0126547, Final residual = 5.47788e-08, No Iterations 5
DILUPBiCGStab:  Solving for Uz, Initial residual = 0.0247729, Final residual = 1.10453e-07, No Iterations 5
linear solve U 30986
PETSc-cg:  Solving for p, Initial residual = 0.00513448, Final residual = 9.92892e-05, No Iterations 264
linear solve p 147308
time step continuity errors : sum local = 2.78248e-09, global = -1.8334e-21, cumulative = -5.08042e-20
PETSc-cg:  Solving for p, Initial residual = 0.00426318, Final residual = 9.02729e-05, No Iterations 262
linear solve p 144209
time step continuity errors : sum local = 2.54295e-09, global = -1.36189e-21, cumulative = -5.21661e-20
ExecutionTime = 10.14 s  ClockTime = 10 s

Time = 0.0019

Courant Number mean: 0.00876813 max: 0.092054
DILUPBiCGStab:  Solving for Ux, Initial residual = 0.00875811, Final residual = 6.23849e-08, No Iterations 5
DILUPBiCGStab:  Solving for Uy, Initial residual = 0.0118904, Final residual = 5.17233e-08, No Iterations 5
DILUPBiCGStab:  Solving for Uz, Initial residual = 0.0233622, Final residual = 1.02408e-07, No Iterations 5
linear solve U 32600
PETSc-cg:  Solving for p, Initial residual = 0.00475328, Final residual = 9.85989e-05, No Iterations 265
linear solve p 145510
time step continuity errors : sum local = 2.77199e-09, global = -2.50658e-21, cumulative = -5.46727e-20
PETSc-cg:  Solving for p, Initial residual = 0.00394528, Final residual = 9.70029e-05, No Iterations 259
linear solve p 142514
time step continuity errors : sum local = 2.7172e-09, global = -4.52501e-21, cumulative = -5.91977e-20
ExecutionTime = 10.5 s  ClockTime = 11 s

Time = 0.002

Courant Number mean: 0.00894849 max: 0.0922409
DILUPBiCGStab:  Solving for Ux, Initial residual = 0.00826098, Final residual = 5.7601e-08, No Iterations 5
DILUPBiCGStab:  Solving for Uy, Initial residual = 0.0112088, Final residual = 4.90317e-08, No Iterations 5
DILUPBiCGStab:  Solving for Uz, Initial residual = 0.0220958, Final residual = 9.51236e-08, No Iterations 5
linear solve U 31205
PETSc-cg:  Solving for p, Initial residual = 0.00439851, Final residual = 9.92572e-05, No Iterations 263
linear solve p 148934
time step continuity errors : sum local = 2.79427e-09, global = -1.78166e-21, cumulative = -6.09794e-20
PETSc-cg:  Solving for p, Initial residual = 0.00365414, Final residual = 9.72807e-05, No Iterations 255
linear solve p 141154
time step continuity errors : sum local = 2.73112e-09, global = -5.57499e-22, cumulative = -6.15369e-20
ExecutionTime = 10.86 s  ClockTime = 11 s

End

Finalizing PETSc
Finalising parallel run
================================================================================
hash: bb1327bf4242f77f403505d2c1ebe1eb
/*---------------------------------------------------------------------------*\
| =========                 |                                                 |
| \\      /  F ield         | OpenFOAM: The Open Source CFD Toolbox           |
|  \\    /   O peration     | Version:  v2106                                 |
|   \\  /    A nd           | Website:  www.openfoam.com                      |
|    \\/     M anipulation  |                                                 |
[...]
| =========                 |                                                 |
| \\      /  F ield         | OpenFOAM: The Open Source CFD Toolbox           |
|  \\    /   O peration     | Version:  v2106                                 |
|   \\  /    A nd           | Website:  www.openfoam.com                      |
|    \\/     M anipulation  |                                                 |
\*---------------------------------------------------------------------------*/
Build  : f815a12bba-20210902 OPENFOAM=2106
Arch   : "LSB;label=32;scalar=64"
Exec   : icoFoam -parallel
Date   : Aug 06 2022
Time   : 03:39:35
Host   : nla-gpu2.ianm.kit.edu
PID    : 17518
I/O    : uncollated
Case   : /home/greole/data/code/ogl_labbook/lidDrivenCavity/single_node/mesh/400/matrix_solver/CG_NoPrecond_PETSC_HIP/mpiRank_of/32/base
nProcs : 32
Hosts  :
(
    (nla-gpu2.ianm.kit.edu 32)
)
Pstream initialized with:
    floatTransfer      : 0
    nProcsSimpleSum    : 0
    commsType          : nonBlocking
    polling iterations : 0
trapFpe: Floating point exception trapping enabled (FOAM_SIGFPE).
fileModificationChecking : Monitoring run-time modified files using timeStampMaster (fileModificationSkew 5, maxFileModificationPolls 20)
allowSystemOperations : Allowing user-supplied system call operations

// * * * * * * * * * * * * * * * * * * * * * * * * * * * * * * * * * * * * * //
Create time

Create mesh for time = 0


PISO: Operating solver in PISO mode

Reading transportProperties

Reading field p

Reading field U

Reading/calculating face flux field phi


Starting time loop

Time = 2.5e-05

Courant Number mean: 0 max: 0
DILUPBiCGStab:  Solving for Ux, Initial residual = 1, Final residual = 0.00138472, No Iterations 5
DILUPBiCGStab:  Solving for Uy:  solution singularity
DILUPBiCGStab:  Solving for Uz:  solution singularity
linear solve U 1874689
Initializing PETSc
PETSc-cg:  Solving for p, Initial residual = 1, Final residual = 9.92545e-05, No Iterations 3256
linear solve p 220723551
time step continuity errors : sum local = 2.41817e-10, global = 2.33965e-22, cumulative = 2.33965e-22
PETSc-cg:  Solving for p, Initial residual = 0.71766, Final residual = 9.9849e-05, No Iterations 3237
linear solve p 217891169
time step continuity errors : sum local = 3.27515e-10, global = 1.50411e-24, cumulative = 2.35469e-22
ExecutionTime = 451.57 s  ClockTime = 454 s

Time = 5e-05

Courant Number mean: 0.00116724 max: 0.075131
DILUPBiCGStab:  Solving for Ux, Initial residual = 0.159863, Final residual = 0.000886592, No Iterations 5
DILUPBiCGStab:  Solving for Uy, Initial residual = 0.348724, Final residual = 0.000948013, No Iterations 5
DILUPBiCGStab:  Solving for Uz, Initial residual = 0.994661, Final residual = 0.00355307, No Iterations 5
linear solve U 3677074
PETSc-cg:  Solving for p, Initial residual = 0.662877, Final residual = 9.88161e-05, No Iterations 3180
linear solve p 214031496
time step continuity errors : sum local = 3.55247e-10, global = 1.07086e-23, cumulative = 2.46178e-22
PETSc-cg:  Solving for p, Initial residual = 0.588461, Final residual = 9.89406e-05, No Iterations 3174
linear solve p 213581069
time step continuity errors : sum local = 3.61921e-10, global = 2.5645e-23, cumulative = 2.71823e-22
ExecutionTime = 883.5 s  ClockTime = 888 s

Time = 7.5e-05

Courant Number mean: 0.0017804 max: 0.0870161
DILUPBiCGStab:  Solving for Ux, Initial residual = 0.0661614, Final residual = 0.000264838, No Iterations 5
DILUPBiCGStab:  Solving for Uy, Initial residual = 0.138226, Final residual = 0.000268004, No Iterations 5
DILUPBiCGStab:  Solving for Uz, Initial residual = 0.438204, Final residual = 0.00189001, No Iterations 5
linear solve U 3681988
PETSc-cg:  Solving for p, Initial residual = 0.561916, Final residual = 9.92798e-05, No Iterations 3133
linear solve p 210858210
time step continuity errors : sum local = 2.54183e-10, global = -3.40229e-23, cumulative = 2.378e-22
PETSc-cg:  Solving for p, Initial residual = 0.504392, Final residual = 9.91937e-05, No Iterations 3126
linear solve p 210402225
time step continuity errors : sum local = 2.48546e-10, global = -3.07355e-23, cumulative = 2.07064e-22
ExecutionTime = 1309.08 s  ClockTime = 1316 s

Time = 0.0001

Courant Number mean: 0.00220759 max: 0.090316
DILUPBiCGStab:  Solving for Ux, Initial residual = 0.0437032, Final residual = 0.000117706, No Iterations 5
DILUPBiCGStab:  Solving for Uy, Initial residual = 0.0872305, Final residual = 0.000107908, No Iterations 5
DILUPBiCGStab:  Solving for Uz, Initial residual = 0.134067, Final residual = 0.000387159, No Iterations 5
linear solve U 3680758
PETSc-cg:  Solving for p, Initial residual = 0.326172, Final residual = 9.97911e-05, No Iterations 1487
linear solve p 100219082
time step continuity errors : sum local = 2.3169e-10, global = 9.43568e-24, cumulative = 2.165e-22
PETSc-cg:  Solving for p, Initial residual = 0.271546, Final residual = 9.85808e-05, No Iterations 1467
linear solve p 98903129
time step continuity errors : sum local = 2.20296e-10, global = 1.11713e-22, cumulative = 3.28213e-22
ExecutionTime = 1513.65 s  ClockTime = 1522 s

Time = 0.000125

Courant Number mean: 0.00255333 max: 0.091904
DILUPBiCGStab:  Solving for Ux, Initial residual = 0.0332648, Final residual = 7.29166e-05, No Iterations 5
DILUPBiCGStab:  Solving for Uy, Initial residual = 0.0630336, Final residual = 6.55547e-05, No Iterations 5
DILUPBiCGStab:  Solving for Uz, Initial residual = 0.0922799, Final residual = 0.000256897, No Iterations 5
linear solve U 3678158
PETSc-cg:  Solving for p, Initial residual = 0.218998, Final residual = 9.90185e-05, No Iterations 1437
linear solve p 96857185
time step continuity errors : sum local = 1.92495e-10, global = -7.40663e-23, cumulative = 2.54147e-22
PETSc-cg:  Solving for p, Initial residual = 0.184874, Final residual = 9.81575e-05, No Iterations 1434
linear solve p 96651036
time step continuity errors : sum local = 1.8773e-10, global = -6.24237e-23, cumulative = 1.91723e-22
ExecutionTime = 1712.67 s  ClockTime = 1722 s

Time = 0.00015

Courant Number mean: 0.00284853 max: 0.0928884
DILUPBiCGStab:  Solving for Ux, Initial residual = 0.0270568, Final residual = 5.00341e-05, No Iterations 5
DILUPBiCGStab:  Solving for Uy, Initial residual = 0.0495079, Final residual = 3.20568e-05, No Iterations 5
DILUPBiCGStab:  Solving for Uz, Initial residual = 0.0804528, Final residual = 0.000162312, No Iterations 5
linear solve U 3677353
PETSc-cg:  Solving for p, Initial residual = 0.131867, Final residual = 9.74401e-05, No Iterations 1451
linear solve p 97810991
time step continuity errors : sum local = 1.95792e-10, global = -4.7433e-23, cumulative = 1.4429e-22
PETSc-cg:  Solving for p, Initial residual = 0.109336, Final residual = 9.867e-05, No Iterations 1375
linear solve p 92695976
time step continuity errors : sum local = 1.89005e-10, global = 2.97423e-23, cumulative = 1.74033e-22
ExecutionTime = 1908.7 s  ClockTime = 1919 s

Time = 0.000175

Courant Number mean: 0.00310899 max: 0.0935743
DILUPBiCGStab:  Solving for Ux, Initial residual = 0.0228913, Final residual = 3.66687e-05, No Iterations 5
DILUPBiCGStab:  Solving for Uy, Initial residual = 0.0407774, Final residual = 2.86052e-05, No Iterations 5
DILUPBiCGStab:  Solving for Uz, Initial residual = 0.0683236, Final residual = 0.000108483, No Iterations 5
linear solve U 3674317
PETSc-cg:  Solving for p, Initial residual = 0.0907172, Final residual = 9.88532e-05, No Iterations 1427
linear solve p 96184699
time step continuity errors : sum local = 1.84446e-10, global = 2.564e-23, cumulative = 1.99673e-22
PETSc-cg:  Solving for p, Initial residual = 0.0760156, Final residual = 9.83514e-05, No Iterations 1380
linear solve p 93038157
time step continuity errors : sum local = 1.77587e-10, global = 5.28247e-23, cumulative = 2.52497e-22
ExecutionTime = 2103.42 s  ClockTime = 2115 s

Time = 0.0002

Courant Number mean: 0.00334351 max: 0.0940885
DILUPBiCGStab:  Solving for Ux, Initial residual = 0.0199009, Final residual = 2.8084e-05, No Iterations 5
DILUPBiCGStab:  Solving for Uy, Initial residual = 0.0346169, Final residual = 2.08578e-05, No Iterations 5
DILUPBiCGStab:  Solving for Uz, Initial residual = 0.061087, Final residual = 8.09709e-05, No Iterations 5
linear solve U 3672048
PETSc-cg:  Solving for p, Initial residual = 0.0587773, Final residual = 9.95221e-05, No Iterations 2976
linear solve p 200341607
time step continuity errors : sum local = 1.76641e-10, global = -1.08236e-23, cumulative = 2.41674e-22
PETSc-cg:  Solving for p, Initial residual = 0.0504995, Final residual = 9.87964e-05, No Iterations 1441
linear solve p 97210542
time step continuity errors : sum local = 1.90717e-10, global = -5.5699e-23, cumulative = 1.85975e-22
ExecutionTime = 2405.96 s  ClockTime = 2419 s

Time = 0.000225

Courant Number mean: 0.00355785 max: 0.094492
DILUPBiCGStab:  Solving for Ux, Initial residual = 0.0176117, Final residual = 2.19627e-05, No Iterations 5
DILUPBiCGStab:  Solving for Uy, Initial residual = 0.0301157, Final residual = 1.90959e-05, No Iterations 5
DILUPBiCGStab:  Solving for Uz, Initial residual = 0.0557599, Final residual = 8.3627e-05, No Iterations 5
linear solve U 3667336
PETSc-cg:  Solving for p, Initial residual = 0.0437157, Final residual = 9.94131e-05, No Iterations 2958
linear solve p 199465817
time step continuity errors : sum local = 1.74988e-10, global = -6.46573e-23, cumulative = 1.21318e-22
PETSc-cg:  Solving for p, Initial residual = 0.0379187, Final residual = 9.96186e-05, No Iterations 2943
linear solve p 198098351
time step continuity errors : sum local = 1.75402e-10, global = -8.12907e-23, cumulative = 4.00269e-23
ExecutionTime = 2807.95 s  ClockTime = 2823 s

Time = 0.00025

Courant Number mean: 0.00375594 max: 0.0948197
DILUPBiCGStab:  Solving for Ux, Initial residual = 0.0158256, Final residual = 1.76788e-05, No Iterations 5
DILUPBiCGStab:  Solving for Uy, Initial residual = 0.0265961, Final residual = 1.60166e-05, No Iterations 5
DILUPBiCGStab:  Solving for Uz, Initial residual = 0.0473529, Final residual = 5.31135e-05, No Iterations 5
linear solve U 3673413
PETSc-cg:  Solving for p, Initial residual = 0.0320096, Final residual = 9.96635e-05, No Iterations 1274
linear solve p 85904843
time step continuity errors : sum local = 1.88657e-10, global = -5.46857e-23, cumulative = -1.46588e-23
PETSc-cg:  Solving for p, Initial residual = 0.0285183, Final residual = 9.95522e-05, No Iterations 1241
linear solve p 83692653
time step continuity errors : sum local = 1.80354e-10, global = 5.7405e-24, cumulative = -8.91828e-24
ExecutionTime = 2983.12 s  ClockTime = 2999 s

Time = 0.000275

Courant Number mean: 0.00394045 max: 0.0950927
DILUPBiCGStab:  Solving for Ux, Initial residual = 0.0143678, Final residual = 1.45315e-05, No Iterations 5
DILUPBiCGStab:  Solving for Uy, Initial residual = 0.0238367, Final residual = 1.44842e-05, No Iterations 5
DILUPBiCGStab:  Solving for Uz, Initial residual = 0.0438234, Final residual = 4.62139e-05, No Iterations 5
linear solve U 3689911
PETSc-cg:  Solving for p, Initial residual = 0.0258155, Final residual = 9.99767e-05, No Iterations 1312
linear solve p 88453050
time step continuity errors : sum local = 1.825e-10, global = -6.81015e-23, cumulative = -7.70198e-23
PETSc-cg:  Solving for p, Initial residual = 0.0233874, Final residual = 9.96593e-05, No Iterations 1254
linear solve p 84539866
time step continuity errors : sum local = 1.74762e-10, global = 9.96072e-23, cumulative = 2.25874e-23
ExecutionTime = 3161.72 s  ClockTime = 3178 s

Time = 0.0003

Courant Number mean: 0.00411347 max: 0.0953247
DILUPBiCGStab:  Solving for Ux, Initial residual = 0.0131727, Final residual = 1.2215e-05, No Iterations 5
DILUPBiCGStab:  Solving for Uy, Initial residual = 0.0215646, Final residual = 1.27283e-05, No Iterations 5
DILUPBiCGStab:  Solving for Uz, Initial residual = 0.0410088, Final residual = 4.17652e-05, No Iterations 5
linear solve U 3675168
PETSc-cg:  Solving for p, Initial residual = 0.0206832, Final residual = 9.89746e-05, No Iterations 1435
linear solve p 96706585
time step continuity errors : sum local = 1.90277e-10, global = -8.63396e-23, cumulative = -6.37521e-23
PETSc-cg:  Solving for p, Initial residual = 0.0191765, Final residual = 9.91572e-05, No Iterations 1347
linear solve p 90805644
time step continuity errors : sum local = 1.80308e-10, global = 5.38514e-23, cumulative = -9.90072e-24
ExecutionTime = 3354.78 s  ClockTime = 3373 s

Time = 0.000325

Courant Number mean: 0.00427673 max: 0.0955249
DILUPBiCGStab:  Solving for Ux, Initial residual = 0.0121539, Final residual = 1.04581e-05, No Iterations 5
DILUPBiCGStab:  Solving for Uy, Initial residual = 0.0197134, Final residual = 1.15664e-05, No Iterations 5
DILUPBiCGStab:  Solving for Uz, Initial residual = 0.0380464, Final residual = 4.19431e-05, No Iterations 5
linear solve U 3675567
PETSc-cg:  Solving for p, Initial residual = 0.0181297, Final residual = 9.85458e-05, No Iterations 1369
linear solve p 92270937
time step continuity errors : sum local = 1.83988e-10, global = 4.48487e-23, cumulative = 3.4948e-23
PETSc-cg:  Solving for p, Initial residual = 0.0169186, Final residual = 9.9827e-05, No Iterations 1277
linear solve p 86102944
time step continuity errors : sum local = 1.75852e-10, global = 1.00948e-23, cumulative = 4.50428e-23
ExecutionTime = 3538.73 s  ClockTime = 3557 s

Time = 0.00035

Courant Number mean: 0.00443142 max: 0.0957
DILUPBiCGStab:  Solving for Ux, Initial residual = 0.0112966, Final residual = 9.11862e-06, No Iterations 5
DILUPBiCGStab:  Solving for Uy, Initial residual = 0.0181184, Final residual = 1.04503e-05, No Iterations 5
DILUPBiCGStab:  Solving for Uz, Initial residual = 0.0356025, Final residual = 4.07194e-05, No Iterations 5
linear solve U 3675391
PETSc-cg:  Solving for p, Initial residual = 0.0157712, Final residual = 9.952e-05, No Iterations 2903
linear solve p 195340580
time step continuity errors : sum local = 1.73775e-10, global = 2.9134e-23, cumulative = 7.41768e-23
PETSc-cg:  Solving for p, Initial residual = 0.0148988, Final residual = 9.98468e-05, No Iterations 2900
linear solve p 195187640
time step continuity errors : sum local = 1.74437e-10, global = 4.0244e-23, cumulative = 1.14421e-22
ExecutionTime = 3933.77 s  ClockTime = 3954 s

Time = 0.000375

Courant Number mean: 0.00457851 max: 0.095855
DILUPBiCGStab:  Solving for Ux, Initial residual = 0.0105439, Final residual = 8.06968e-06, No Iterations 5
DILUPBiCGStab:  Solving for Uy, Initial residual = 0.0167805, Final residual = 9.56972e-06, No Iterations 5
DILUPBiCGStab:  Solving for Uz, Initial residual = 0.0315628, Final residual = 2.37234e-05, No Iterations 5
linear solve U 3672997
PETSc-cg:  Solving for p, Initial residual = 0.0142988, Final residual = 9.9345e-05, No Iterations 1183
linear solve p 79789067
time step continuity errors : sum local = 1.78381e-10, global = -2.20366e-25, cumulative = 1.142e-22
PETSc-cg:  Solving for p, Initial residual = 0.0135469, Final residual = 9.94934e-05, No Iterations 1173
linear solve p 79087628
time step continuity errors : sum local = 1.75836e-10, global = 8.89374e-23, cumulative = 2.03138e-22
ExecutionTime = 4098.33 s  ClockTime = 4120 s

Time = 0.0004

Courant Number mean: 0.004719 max: 0.0959932
DILUPBiCGStab:  Solving for Ux, Initial residual = 0.0098908, Final residual = 7.24297e-06, No Iterations 5
DILUPBiCGStab:  Solving for Uy, Initial residual = 0.0156132, Final residual = 8.79214e-06, No Iterations 5
DILUPBiCGStab:  Solving for Uz, Initial residual = 0.029978, Final residual = 1.84672e-05, No Iterations 5
linear solve U 3674453
PETSc-cg:  Solving for p, Initial residual = 0.0128588, Final residual = 9.88568e-05, No Iterations 1190
linear solve p 80239735
time step continuity errors : sum local = 1.78097e-10, global = -1.24987e-22, cumulative = 7.81512e-23
PETSc-cg:  Solving for p, Initial residual = 0.0122567, Final residual = 9.74776e-05, No Iterations 1174
linear solve p 79167639
time step continuity errors : sum local = 1.71342e-10, global = 4.47537e-23, cumulative = 1.22905e-22
ExecutionTime = 4263.41 s  ClockTime = 4286 s

Time = 0.000425

Courant Number mean: 0.00485338 max: 0.0961176
DILUPBiCGStab:  Solving for Ux, Initial residual = 0.00931075, Final residual = 6.58462e-06, No Iterations 5
DILUPBiCGStab:  Solving for Uy, Initial residual = 0.0146052, Final residual = 8.15472e-06, No Iterations 5
DILUPBiCGStab:  Solving for Uz, Initial residual = 0.028145, Final residual = 1.89973e-05, No Iterations 5
linear solve U 3675032
PETSc-cg:  Solving for p, Initial residual = 0.0117049, Final residual = 9.94778e-05, No Iterations 1307
linear solve p 88091054
time step continuity errors : sum local = 1.80419e-10, global = -4.37928e-23, cumulative = 7.91122e-23
PETSc-cg:  Solving for p, Initial residual = 0.0111791, Final residual = 9.99855e-05, No Iterations 1273
linear solve p 85855363
time step continuity errors : sum local = 1.77187e-10, global = -9.12392e-23, cumulative = -1.2127e-23
ExecutionTime = 4442.97 s  ClockTime = 4466 s

Time = 0.00045

Courant Number mean: 0.00498241 max: 0.0962302
DILUPBiCGStab:  Solving for Ux, Initial residual = 0.00880041, Final residual = 6.05457e-06, No Iterations 5
DILUPBiCGStab:  Solving for Uy, Initial residual = 0.0137064, Final residual = 7.5872e-06, No Iterations 5
DILUPBiCGStab:  Solving for Uz, Initial residual = 0.0268818, Final residual = 1.82881e-05, No Iterations 5
linear solve U 3670816
PETSc-cg:  Solving for p, Initial residual = 0.0108854, Final residual = 9.98891e-05, No Iterations 1297
linear solve p 87454972
time step continuity errors : sum local = 1.82042e-10, global = 5.1925e-24, cumulative = -6.93446e-24
PETSc-cg:  Solving for p, Initial residual = 0.0104176, Final residual = 9.95952e-05, No Iterations 1218
linear solve p 82149570
time step continuity errors : sum local = 1.75808e-10, global = -5.57439e-23, cumulative = -6.26784e-23
ExecutionTime = 4618.11 s  ClockTime = 4642 s

Time = 0.000475

Courant Number mean: 0.00510644 max: 0.096333
DILUPBiCGStab:  Solving for Ux, Initial residual = 0.0083376, Final residual = 5.62711e-06, No Iterations 5
DILUPBiCGStab:  Solving for Uy, Initial residual = 0.0129216, Final residual = 7.10727e-06, No Iterations 5
DILUPBiCGStab:  Solving for Uz, Initial residual = 0.0254263, Final residual = 1.95719e-05, No Iterations 5
linear solve U 3674677
PETSc-cg:  Solving for p, Initial residual = 0.0101868, Final residual = 9.91113e-05, No Iterations 1312
linear solve p 88428738
time step continuity errors : sum local = 1.82258e-10, global = -4.45062e-23, cumulative = -1.07185e-22
PETSc-cg:  Solving for p, Initial residual = 0.00974848, Final residual = 9.9645e-05, No Iterations 1284
linear solve p 86602361
time step continuity errors : sum local = 1.77311e-10, global = -7.3351e-23, cumulative = -1.80536e-22
ExecutionTime = 4798.62 s  ClockTime = 4824 s

Time = 0.0005

Courant Number mean: 0.00522603 max: 0.0964271
DILUPBiCGStab:  Solving for Ux, Initial residual = 0.00792807, Final residual = 5.29099e-06, No Iterations 5
DILUPBiCGStab:  Solving for Uy, Initial residual = 0.0122057, Final residual = 6.67707e-06, No Iterations 5
DILUPBiCGStab:  Solving for Uz, Initial residual = 0.0242589, Final residual = 1.97399e-05, No Iterations 5
linear solve U 3672230
PETSc-cg:  Solving for p, Initial residual = 0.00957963, Final residual = 9.99065e-05, No Iterations 1292
linear solve p 87102994
time step continuity errors : sum local = 1.84939e-10, global = -1.06311e-22, cumulative = -2.86847e-22
PETSc-cg:  Solving for p, Initial residual = 0.00918672, Final residual = 9.9629e-05, No Iterations 1179
linear solve p 79501980
time step continuity errors : sum local = 1.76859e-10, global = -5.27715e-23, cumulative = -3.39619e-22
ExecutionTime = 4970.85 s  ClockTime = 4997 s

End

Finalizing PETSc
Finalising parallel run
================================================================================
