hash: ab3ca1797f4fe52543b92161df167d3a
/*---------------------------------------------------------------------------*\
| =========                 |                                                 |
| \\      /  F ield         | OpenFOAM: The Open Source CFD Toolbox           |
|  \\    /   O peration     | Version:  v2106                                 |
|   \\  /    A nd           | Website:  www.openfoam.com                      |
|    \\/     M anipulation  |                                                 |
\*---------------------------------------------------------------------------*/
Build  : f815a12bba-20210902 OPENFOAM=2106
Arch   : "LSB;label=32;scalar=64"
Exec   : icoFoam -parallel
Date   : Aug 06 2022
Time   : 05:02:56
Host   : nla-gpu2.ianm.kit.edu
PID    : 18350
I/O    : uncollated
Case   : /home/greole/data/code/ogl_labbook/lidDrivenCavity/single_node/mesh/100/matrix_solver/CG_NoPrecond_PETSC_Default/mpiRank_of/32/base
nProcs : 32
Hosts  :
(
    (nla-gpu2.ianm.kit.edu 32)
)
Pstream initialized with:
    floatTransfer      : 0
    nProcsSimpleSum    : 0
    commsType          : nonBlocking
    polling iterations : 0
trapFpe: Floating point exception trapping enabled (FOAM_SIGFPE).
fileModificationChecking : Monitoring run-time modified files using timeStampMaster (fileModificationSkew 5, maxFileModificationPolls 20)
allowSystemOperations : Allowing user-supplied system call operations

// * * * * * * * * * * * * * * * * * * * * * * * * * * * * * * * * * * * * * //
Create time

Create mesh for time = 0


PISO: Operating solver in PISO mode

Reading transportProperties

Reading field p

Reading field U

Reading/calculating face flux field phi


Starting time loop

Time = 0.0001

Courant Number mean: 0 max: 0
DILUPBiCGStab:  Solving for Ux, Initial residual = 1, Final residual = 5.11961e-06, No Iterations 5
DILUPBiCGStab:  Solving for Uy:  solution singularity
DILUPBiCGStab:  Solving for Uz:  solution singularity
linear solve U 73209
Initializing PETSc
PETSc-cg:  Solving for p, Initial residual = 1, Final residual = 9.68152e-05, No Iterations 794
linear solve p 430732
time step continuity errors : sum local = 1.71048e-09, global = -1.19589e-21, cumulative = -1.19589e-21
PETSc-cg:  Solving for p, Initial residual = 0.559986, Final residual = 9.75196e-05, No Iterations 777
linear solve p 381576
time step continuity errors : sum local = 2.66754e-09, global = -3.80438e-22, cumulative = -1.57633e-21
ExecutionTime = 1.55 s  ClockTime = 2 s

Time = 0.0002

Courant Number mean: 0.00201332 max: 0.0540371
DILUPBiCGStab:  Solving for Ux, Initial residual = 0.216464, Final residual = 4.03946e-06, No Iterations 5
DILUPBiCGStab:  Solving for Uy, Initial residual = 0.309938, Final residual = 3.41666e-06, No Iterations 5
DILUPBiCGStab:  Solving for Uz, Initial residual = 0.98131, Final residual = 9.74794e-06, No Iterations 5
linear solve U 35602
PETSc-cg:  Solving for p, Initial residual = 0.381697, Final residual = 9.12476e-05, No Iterations 769
linear solve p 341434
time step continuity errors : sum local = 2.38645e-09, global = -4.72162e-22, cumulative = -2.04849e-21
PETSc-cg:  Solving for p, Initial residual = 0.284805, Final residual = 9.60948e-05, No Iterations 764
linear solve p 337069
time step continuity errors : sum local = 2.63323e-09, global = -6.22468e-22, cumulative = -2.67096e-21
ExecutionTime = 2.38 s  ClockTime = 3 s

Time = 0.0003

Courant Number mean: 0.00317979 max: 0.0721774
DILUPBiCGStab:  Solving for Ux, Initial residual = 0.0963257, Final residual = 1.67916e-06, No Iterations 5
DILUPBiCGStab:  Solving for Uy, Initial residual = 0.140691, Final residual = 1.46743e-06, No Iterations 5
DILUPBiCGStab:  Solving for Uz, Initial residual = 0.205664, Final residual = 2.19577e-06, No Iterations 5
linear solve U 35434
PETSc-cg:  Solving for p, Initial residual = 0.128588, Final residual = 9.75761e-05, No Iterations 743
linear solve p 343174
time step continuity errors : sum local = 2.29922e-09, global = -1.5347e-21, cumulative = -4.20566e-21
PETSc-cg:  Solving for p, Initial residual = 0.0996221, Final residual = 9.97911e-05, No Iterations 736
linear solve p 336988
time step continuity errors : sum local = 2.38198e-09, global = -1.049e-21, cumulative = -5.25466e-21
ExecutionTime = 3.19 s  ClockTime = 4 s

Time = 0.0004

Courant Number mean: 0.00397984 max: 0.0793325
DILUPBiCGStab:  Solving for Ux, Initial residual = 0.0593651, Final residual = 8.48476e-07, No Iterations 5
DILUPBiCGStab:  Solving for Uy, Initial residual = 0.0868086, Final residual = 7.57959e-07, No Iterations 5
DILUPBiCGStab:  Solving for Uz, Initial residual = 0.127078, Final residual = 9.71776e-07, No Iterations 5
linear solve U 32267
PETSc-cg:  Solving for p, Initial residual = 0.064299, Final residual = 9.69277e-05, No Iterations 729
linear solve p 325919
time step continuity errors : sum local = 2.24724e-09, global = -1.14995e-21, cumulative = -6.40461e-21
PETSc-cg:  Solving for p, Initial residual = 0.0497323, Final residual = 9.98914e-05, No Iterations 719
linear solve p 322907
time step continuity errors : sum local = 2.35191e-09, global = -4.16201e-22, cumulative = -6.82081e-21
ExecutionTime = 3.96 s  ClockTime = 4 s

Time = 0.0005

Courant Number mean: 0.00460129 max: 0.082885
DILUPBiCGStab:  Solving for Ux, Initial residual = 0.0428599, Final residual = 5.81762e-07, No Iterations 5
DILUPBiCGStab:  Solving for Uy, Initial residual = 0.0618649, Final residual = 4.25782e-07, No Iterations 5
DILUPBiCGStab:  Solving for Uz, Initial residual = 0.0971403, Final residual = 6.06993e-07, No Iterations 5
linear solve U 33486
PETSc-cg:  Solving for p, Initial residual = 0.0389517, Final residual = 9.91551e-05, No Iterations 402
linear solve p 185028
time step continuity errors : sum local = 2.66932e-09, global = -7.65266e-22, cumulative = -7.58608e-21
PETSc-cg:  Solving for p, Initial residual = 0.0305798, Final residual = 9.88145e-05, No Iterations 339
linear solve p 159527
time step continuity errors : sum local = 2.46989e-09, global = -6.57092e-22, cumulative = -8.24317e-21
ExecutionTime = 4.41 s  ClockTime = 5 s

Time = 0.0006

Courant Number mean: 0.00511864 max: 0.0850107
DILUPBiCGStab:  Solving for Ux, Initial residual = 0.0336701, Final residual = 4.249e-07, No Iterations 5
DILUPBiCGStab:  Solving for Uy, Initial residual = 0.0480492, Final residual = 2.6857e-07, No Iterations 5
DILUPBiCGStab:  Solving for Uz, Initial residual = 0.0802598, Final residual = 4.76986e-07, No Iterations 5
linear solve U 38954
PETSc-cg:  Solving for p, Initial residual = 0.0269297, Final residual = 9.76549e-05, No Iterations 341
linear solve p 171319
time step continuity errors : sum local = 2.55063e-09, global = -1.44e-21, cumulative = -9.68317e-21
PETSc-cg:  Solving for p, Initial residual = 0.0213698, Final residual = 9.5663e-05, No Iterations 312
linear solve p 141748
time step continuity errors : sum local = 2.42773e-09, global = -1.9269e-21, cumulative = -1.16101e-20
ExecutionTime = 4.81 s  ClockTime = 5 s

Time = 0.0007

Courant Number mean: 0.00556497 max: 0.0864549
DILUPBiCGStab:  Solving for Ux, Initial residual = 0.0277666, Final residual = 3.23588e-07, No Iterations 5
DILUPBiCGStab:  Solving for Uy, Initial residual = 0.0392374, Final residual = 1.94328e-07, No Iterations 5
DILUPBiCGStab:  Solving for Uz, Initial residual = 0.0677421, Final residual = 3.85034e-07, No Iterations 5
linear solve U 32720
PETSc-cg:  Solving for p, Initial residual = 0.0207675, Final residual = 9.67386e-05, No Iterations 301
linear solve p 135299
time step continuity errors : sum local = 2.58483e-09, global = -1.3032e-21, cumulative = -1.29133e-20
PETSc-cg:  Solving for p, Initial residual = 0.0165044, Final residual = 9.73978e-05, No Iterations 293
linear solve p 133635
time step continuity errors : sum local = 2.51948e-09, global = -1.46837e-21, cumulative = -1.43816e-20
ExecutionTime = 5.17 s  ClockTime = 6 s

Time = 0.0008

Courant Number mean: 0.0059623 max: 0.0875193
DILUPBiCGStab:  Solving for Ux, Initial residual = 0.0236243, Final residual = 2.61674e-07, No Iterations 5
DILUPBiCGStab:  Solving for Uy, Initial residual = 0.0331355, Final residual = 1.5442e-07, No Iterations 5
DILUPBiCGStab:  Solving for Uz, Initial residual = 0.0588704, Final residual = 3.08943e-07, No Iterations 5
linear solve U 31741
PETSc-cg:  Solving for p, Initial residual = 0.0166958, Final residual = 9.78818e-05, No Iterations 294
linear solve p 133830
time step continuity errors : sum local = 2.62321e-09, global = -1.83157e-21, cumulative = -1.62132e-20
PETSc-cg:  Solving for p, Initial residual = 0.0133993, Final residual = 9.87332e-05, No Iterations 287
linear solve p 131367
time step continuity errors : sum local = 2.58578e-09, global = -2.32742e-21, cumulative = -1.85406e-20
ExecutionTime = 5.51 s  ClockTime = 6 s

Time = 0.0009

Courant Number mean: 0.00631847 max: 0.0883466
DILUPBiCGStab:  Solving for Ux, Initial residual = 0.0205606, Final residual = 2.16779e-07, No Iterations 5
DILUPBiCGStab:  Solving for Uy, Initial residual = 0.0286497, Final residual = 1.29183e-07, No Iterations 5
DILUPBiCGStab:  Solving for Uz, Initial residual = 0.0520057, Final residual = 2.55242e-07, No Iterations 5
linear solve U 33810
PETSc-cg:  Solving for p, Initial residual = 0.0139029, Final residual = 9.90083e-05, No Iterations 288
linear solve p 130122
time step continuity errors : sum local = 2.67213e-09, global = -1.85491e-21, cumulative = -2.03955e-20
PETSc-cg:  Solving for p, Initial residual = 0.0112151, Final residual = 9.7597e-05, No Iterations 283
linear solve p 127739
time step continuity errors : sum local = 2.58856e-09, global = -1.69721e-21, cumulative = -2.20927e-20
ExecutionTime = 5.84 s  ClockTime = 6 s

Time = 0.001

Courant Number mean: 0.00664438 max: 0.089014
DILUPBiCGStab:  Solving for Ux, Initial residual = 0.0181846, Final residual = 1.82148e-07, No Iterations 5
DILUPBiCGStab:  Solving for Uy, Initial residual = 0.0252122, Final residual = 1.11408e-07, No Iterations 5
DILUPBiCGStab:  Solving for Uz, Initial residual = 0.0465187, Final residual = 2.20618e-07, No Iterations 5
linear solve U 29009
PETSc-cg:  Solving for p, Initial residual = 0.0118838, Final residual = 9.92334e-05, No Iterations 285
linear solve p 129502
time step continuity errors : sum local = 2.69371e-09, global = -2.21298e-21, cumulative = -2.43057e-20
PETSc-cg:  Solving for p, Initial residual = 0.00962496, Final residual = 9.93683e-05, No Iterations 280
linear solve p 126607
time step continuity errors : sum local = 2.65641e-09, global = -9.34363e-22, cumulative = -2.52401e-20
ExecutionTime = 6.19 s  ClockTime = 7 s

Time = 0.0011

Courant Number mean: 0.00694533 max: 0.0895673
DILUPBiCGStab:  Solving for Ux, Initial residual = 0.016298, Final residual = 1.5498e-07, No Iterations 5
DILUPBiCGStab:  Solving for Uy, Initial residual = 0.0224932, Final residual = 9.81169e-08, No Iterations 5
DILUPBiCGStab:  Solving for Uz, Initial residual = 0.042037, Final residual = 1.969e-07, No Iterations 5
linear solve U 30440
PETSc-cg:  Solving for p, Initial residual = 0.0102912, Final residual = 9.84939e-05, No Iterations 283
linear solve p 135633
time step continuity errors : sum local = 2.69147e-09, global = -9.34466e-22, cumulative = -2.61746e-20
PETSc-cg:  Solving for p, Initial residual = 0.00836046, Final residual = 9.49997e-05, No Iterations 278
linear solve p 133034
time step continuity errors : sum local = 2.57122e-09, global = -2.54956e-21, cumulative = -2.87241e-20
ExecutionTime = 6.53 s  ClockTime = 7 s

Time = 0.0012

Courant Number mean: 0.0072238 max: 0.0900356
DILUPBiCGStab:  Solving for Ux, Initial residual = 0.0147479, Final residual = 1.33541e-07, No Iterations 5
DILUPBiCGStab:  Solving for Uy, Initial residual = 0.0202888, Final residual = 8.7765e-08, No Iterations 5
DILUPBiCGStab:  Solving for Uz, Initial residual = 0.038311, Final residual = 1.79027e-07, No Iterations 5
linear solve U 32958
PETSc-cg:  Solving for p, Initial residual = 0.00904511, Final residual = 9.76134e-05, No Iterations 279
linear solve p 136985
time step continuity errors : sum local = 2.68331e-09, global = -2.36863e-21, cumulative = -3.10927e-20
PETSc-cg:  Solving for p, Initial residual = 0.007385, Final residual = 9.84071e-05, No Iterations 275
linear solve p 130024
time step continuity errors : sum local = 2.67241e-09, global = -1.72862e-21, cumulative = -3.28214e-20
ExecutionTime = 6.87 s  ClockTime = 7 s

Time = 0.0013

Courant Number mean: 0.00748302 max: 0.0904386
DILUPBiCGStab:  Solving for Ux, Initial residual = 0.0134667, Final residual = 1.16451e-07, No Iterations 5
DILUPBiCGStab:  Solving for Uy, Initial residual = 0.0184655, Final residual = 7.94789e-08, No Iterations 5
DILUPBiCGStab:  Solving for Uz, Initial residual = 0.0351691, Final residual = 1.64384e-07, No Iterations 5
linear solve U 31354
PETSc-cg:  Solving for p, Initial residual = 0.0080939, Final residual = 9.75388e-05, No Iterations 276
linear solve p 125328
time step continuity errors : sum local = 2.69395e-09, global = -1.70844e-21, cumulative = -3.45298e-20
PETSc-cg:  Solving for p, Initial residual = 0.00662863, Final residual = 9.96906e-05, No Iterations 271
linear solve p 123794
time step continuity errors : sum local = 2.71997e-09, global = -7.95872e-22, cumulative = -3.53257e-20
ExecutionTime = 7.19 s  ClockTime = 8 s

Time = 0.0014

Courant Number mean: 0.00772784 max: 0.0907903
DILUPBiCGStab:  Solving for Ux, Initial residual = 0.0123791, Final residual = 1.02685e-07, No Iterations 5
DILUPBiCGStab:  Solving for Uy, Initial residual = 0.0169327, Final residual = 7.27048e-08, No Iterations 5
DILUPBiCGStab:  Solving for Uz, Initial residual = 0.0324831, Final residual = 1.51562e-07, No Iterations 5
linear solve U 32861
PETSc-cg:  Solving for p, Initial residual = 0.00727972, Final residual = 9.82432e-05, No Iterations 274
linear solve p 123444
time step continuity errors : sum local = 2.72245e-09, global = -2.63132e-21, cumulative = -3.7957e-20
PETSc-cg:  Solving for p, Initial residual = 0.00597883, Final residual = 9.7126e-05, No Iterations 270
linear solve p 122165
time step continuity errors : sum local = 2.67086e-09, global = -5.36489e-22, cumulative = -3.84935e-20
ExecutionTime = 7.52 s  ClockTime = 8 s

Time = 0.0015

Courant Number mean: 0.00795861 max: 0.0911006
DILUPBiCGStab:  Solving for Ux, Initial residual = 0.0114468, Final residual = 9.14637e-08, No Iterations 5
DILUPBiCGStab:  Solving for Uy, Initial residual = 0.0156261, Final residual = 6.70755e-08, No Iterations 5
DILUPBiCGStab:  Solving for Uz, Initial residual = 0.0301614, Final residual = 1.39891e-07, No Iterations 5
linear solve U 34257
PETSc-cg:  Solving for p, Initial residual = 0.0065794, Final residual = 9.83623e-05, No Iterations 271
linear solve p 127345
time step continuity errors : sum local = 2.73484e-09, global = -1.42776e-21, cumulative = -3.99212e-20
PETSc-cg:  Solving for p, Initial residual = 0.00542534, Final residual = 9.86038e-05, No Iterations 266
linear solve p 122181
time step continuity errors : sum local = 2.71948e-09, global = -2.31106e-21, cumulative = -4.22323e-20
ExecutionTime = 7.84 s  ClockTime = 8 s

Time = 0.0016

Courant Number mean: 0.00817649 max: 0.0913769
DILUPBiCGStab:  Solving for Ux, Initial residual = 0.0106404, Final residual = 8.21873e-08, No Iterations 5
DILUPBiCGStab:  Solving for Uy, Initial residual = 0.0144993, Final residual = 6.23318e-08, No Iterations 5
DILUPBiCGStab:  Solving for Uz, Initial residual = 0.028136, Final residual = 1.29221e-07, No Iterations 5
linear solve U 34100
PETSc-cg:  Solving for p, Initial residual = 0.00603103, Final residual = 9.85771e-05, No Iterations 271
linear solve p 122620
time step continuity errors : sum local = 2.74954e-09, global = -8.97905e-22, cumulative = -4.31302e-20
PETSc-cg:  Solving for p, Initial residual = 0.00496403, Final residual = 9.48642e-05, No Iterations 265
linear solve p 121582
time step continuity errors : sum local = 2.63826e-09, global = -1.188e-21, cumulative = -4.43182e-20
ExecutionTime = 8.16 s  ClockTime = 9 s

Time = 0.0017

Courant Number mean: 0.00838249 max: 0.0916252
DILUPBiCGStab:  Solving for Ux, Initial residual = 0.00993237, Final residual = 7.4453e-08, No Iterations 5
DILUPBiCGStab:  Solving for Uy, Initial residual = 0.0135175, Final residual = 5.8277e-08, No Iterations 5
DILUPBiCGStab:  Solving for Uz, Initial residual = 0.0263532, Final residual = 1.19366e-07, No Iterations 5
linear solve U 31634
PETSc-cg:  Solving for p, Initial residual = 0.00548755, Final residual = 9.985e-05, No Iterations 266
linear solve p 121044
time step continuity errors : sum local = 2.78843e-09, global = -2.93953e-21, cumulative = -4.72577e-20
PETSc-cg:  Solving for p, Initial residual = 0.00454712, Final residual = 9.65133e-05, No Iterations 263
linear solve p 118731
time step continuity errors : sum local = 2.68842e-09, global = -1.71311e-21, cumulative = -4.89708e-20
ExecutionTime = 8.47 s  ClockTime = 9 s

Time = 0.0018

Courant Number mean: 0.00857955 max: 0.0918497
DILUPBiCGStab:  Solving for Ux, Initial residual = 0.00931096, Final residual = 6.79455e-08, No Iterations 5
DILUPBiCGStab:  Solving for Uy, Initial residual = 0.0126547, Final residual = 5.47788e-08, No Iterations 5
DILUPBiCGStab:  Solving for Uz, Initial residual = 0.0247729, Final residual = 1.10453e-07, No Iterations 5
linear solve U 32134
PETSc-cg:  Solving for p, Initial residual = 0.00513448, Final residual = 9.92892e-05, No Iterations 264
linear solve p 120812
time step continuity errors : sum local = 2.78248e-09, global = -1.8334e-21, cumulative = -5.08042e-20
PETSc-cg:  Solving for p, Initial residual = 0.00426318, Final residual = 9.02729e-05, No Iterations 262
linear solve p 123867
time step continuity errors : sum local = 2.54295e-09, global = -1.36189e-21, cumulative = -5.21661e-20
ExecutionTime = 8.79 s  ClockTime = 9 s

Time = 0.0019

Courant Number mean: 0.00876813 max: 0.092054
DILUPBiCGStab:  Solving for Ux, Initial residual = 0.00875811, Final residual = 6.23849e-08, No Iterations 5
DILUPBiCGStab:  Solving for Uy, Initial residual = 0.0118904, Final residual = 5.17233e-08, No Iterations 5
DILUPBiCGStab:  Solving for Uz, Initial residual = 0.0233622, Final residual = 1.02408e-07, No Iterations 5
linear solve U 30415
PETSc-cg:  Solving for p, Initial residual = 0.00475328, Final residual = 9.85989e-05, No Iterations 265
linear solve p 123121
time step continuity errors : sum local = 2.77199e-09, global = -2.50658e-21, cumulative = -5.46727e-20
PETSc-cg:  Solving for p, Initial residual = 0.00394528, Final residual = 9.70029e-05, No Iterations 259
linear solve p 127487
time step continuity errors : sum local = 2.7172e-09, global = -4.52501e-21, cumulative = -5.91977e-20
ExecutionTime = 9.11 s  ClockTime = 10 s

Time = 0.002

Courant Number mean: 0.00894849 max: 0.0922409
DILUPBiCGStab:  Solving for Ux, Initial residual = 0.00826098, Final residual = 5.7601e-08, No Iterations 5
DILUPBiCGStab:  Solving for Uy, Initial residual = 0.0112088, Final residual = 4.90317e-08, No Iterations 5
DILUPBiCGStab:  Solving for Uz, Initial residual = 0.0220958, Final residual = 9.51236e-08, No Iterations 5
linear solve U 33227
PETSc-cg:  Solving for p, Initial residual = 0.00439851, Final residual = 9.92572e-05, No Iterations 263
linear solve p 126283
time step continuity errors : sum local = 2.79427e-09, global = -1.78166e-21, cumulative = -6.09794e-20
PETSc-cg:  Solving for p, Initial residual = 0.00365414, Final residual = 9.72807e-05, No Iterations 255
linear solve p 119263
time step continuity errors : sum local = 2.73112e-09, global = -5.57499e-22, cumulative = -6.15369e-20
ExecutionTime = 9.43 s  ClockTime = 10 s

End

Finalizing PETSc
Finalising parallel run
================================================================================
hash: d799d293191de70dacec23cb3e654177
/*---------------------------------------------------------------------------*\
| =========                 |                                                 |
| \\      /  F ield         | OpenFOAM: The Open Source CFD Toolbox           |
|  \\    /   O peration     | Version:  v2106                                 |
|   \\  /    A nd           | Website:  www.openfoam.com                      |
|    \\/     M anipulation  |                                                 |
\*---------------------------------------------------------------------------*/
Build  : f815a12bba-20210902 OPENFOAM=2106
Arch   : "LSB;label=32;scalar=64"
Exec   : icoFoam -parallel
Date   : Aug 06 2022
Time   : 05:03:10
Host   : nla-gpu2.ianm.kit.edu
PID    : 18639
I/O    : uncollated
Case   : /home/greole/data/code/ogl_labbook/lidDrivenCavity/single_node/mesh/200/matrix_solver/CG_NoPrecond_PETSC_Default/mpiRank_of/32/base
nProcs : 32
Hosts  :
(
    (nla-gpu2.ianm.kit.edu 32)
)
Pstream initialized with:
    floatTransfer      : 0
    nProcsSimpleSum    : 0
    commsType          : nonBlocking
    polling iterations : 0
trapFpe: Floating point exception trapping enabled (FOAM_SIGFPE).
fileModificationChecking : Monitoring run-time modified files using timeStampMaster (fileModificationSkew 5, maxFileModificationPolls 20)
allowSystemOperations : Allowing user-supplied system call operations

// * * * * * * * * * * * * * * * * * * * * * * * * * * * * * * * * * * * * * //
Create time

Create mesh for time = 0


PISO: Operating solver in PISO mode

Reading transportProperties

Reading field p

Reading field U

Reading/calculating face flux field phi


Starting time loop

Time = 5e-05

Courant Number mean: 0 max: 0
DILUPBiCGStab:  Solving for Ux, Initial residual = 1, Final residual = 0.000121814, No Iterations 5
DILUPBiCGStab:  Solving for Uy:  solution singularity
DILUPBiCGStab:  Solving for Uz:  solution singularity
linear solve U 280837
Initializing PETSc
PETSc-cg:  Solving for p, Initial residual = 1, Final residual = 9.94848e-05, No Iterations 1614
linear solve p 11912154
time step continuity errors : sum local = 6.58725e-10, global = -3.07737e-24, cumulative = -3.07737e-24
PETSc-cg:  Solving for p, Initial residual = 0.645093, Final residual = 9.63331e-05, No Iterations 1587
linear solve p 11323663
time step continuity errors : sum local = 9.21083e-10, global = 8.76366e-23, cumulative = 8.45592e-23
ExecutionTime = 25.46 s  ClockTime = 26 s

Time = 0.0001

Courant Number mean: 0.00156134 max: 0.0657803
DILUPBiCGStab:  Solving for Ux, Initial residual = 0.189842, Final residual = 7.89089e-05, No Iterations 5
DILUPBiCGStab:  Solving for Uy, Initial residual = 0.330054, Final residual = 7.67047e-05, No Iterations 5
DILUPBiCGStab:  Solving for Uz, Initial residual = 0.992764, Final residual = 0.000282505, No Iterations 5
linear solve U 406600
PETSc-cg:  Solving for p, Initial residual = 0.510327, Final residual = 9.66542e-05, No Iterations 1561
linear solve p 11112426
time step continuity errors : sum local = 9.00972e-10, global = -1.5383e-23, cumulative = 6.91762e-23
PETSc-cg:  Solving for p, Initial residual = 0.421059, Final residual = 9.58861e-05, No Iterations 1556
linear solve p 11082155
time step continuity errors : sum local = 9.21477e-10, global = 1.42848e-22, cumulative = 2.12024e-22
ExecutionTime = 48.32 s  ClockTime = 49 s

Time = 0.00015

Courant Number mean: 0.00241156 max: 0.0810516
DILUPBiCGStab:  Solving for Ux, Initial residual = 0.080351, Final residual = 2.73605e-05, No Iterations 5
DILUPBiCGStab:  Solving for Uy, Initial residual = 0.137294, Final residual = 1.74134e-05, No Iterations 5
DILUPBiCGStab:  Solving for Uz, Initial residual = 0.0914851, Final residual = 3.87402e-05, No Iterations 5
linear solve U 415868
PETSc-cg:  Solving for p, Initial residual = 0.252941, Final residual = 9.80541e-05, No Iterations 1526
linear solve p 10864405
time step continuity errors : sum local = 7.05661e-10, global = 4.42307e-23, cumulative = 2.56255e-22
PETSc-cg:  Solving for p, Initial residual = 0.209329, Final residual = 9.83794e-05, No Iterations 1517
linear solve p 10794319
time step continuity errors : sum local = 7.00209e-10, global = -4.96507e-23, cumulative = 2.06604e-22
ExecutionTime = 70.63 s  ClockTime = 71 s

Time = 0.0002

Courant Number mean: 0.00299652 max: 0.0859677
DILUPBiCGStab:  Solving for Ux, Initial residual = 0.0511434, Final residual = 1.34186e-05, No Iterations 5
DILUPBiCGStab:  Solving for Uy, Initial residual = 0.0858845, Final residual = 1.22913e-05, No Iterations 5
DILUPBiCGStab:  Solving for Uz, Initial residual = 0.111652, Final residual = 2.6197e-05, No Iterations 5
linear solve U 404125
PETSc-cg:  Solving for p, Initial residual = 0.123137, Final residual = 9.93197e-05, No Iterations 1485
linear solve p 10575629
time step continuity errors : sum local = 6.71853e-10, global = -1.35363e-22, cumulative = 7.12409e-23
PETSc-cg:  Solving for p, Initial residual = 0.0998339, Final residual = 9.84631e-05, No Iterations 1480
linear solve p 10528582
time step continuity errors : sum local = 6.73493e-10, global = -2.51376e-22, cumulative = -1.80135e-22
ExecutionTime = 92.37 s  ClockTime = 93 s

Time = 0.00025

Courant Number mean: 0.00346137 max: 0.088316
DILUPBiCGStab:  Solving for Ux, Initial residual = 0.0380473, Final residual = 7.03342e-06, No Iterations 5
DILUPBiCGStab:  Solving for Uy, Initial residual = 0.0619927, Final residual = 8.69556e-06, No Iterations 5
DILUPBiCGStab:  Solving for Uz, Initial residual = 0.0916067, Final residual = 1.41422e-05, No Iterations 5
linear solve U 400283
PETSc-cg:  Solving for p, Initial residual = 0.0624845, Final residual = 9.71893e-05, No Iterations 715
linear solve p 5102711
time step continuity errors : sum local = 6.97195e-10, global = -3.61506e-22, cumulative = -5.41641e-22
PETSc-cg:  Solving for p, Initial residual = 0.0526116, Final residual = 9.92168e-05, No Iterations 682
linear solve p 4877676
time step continuity errors : sum local = 6.7441e-10, global = -3.72438e-23, cumulative = -5.78885e-22
ExecutionTime = 103.05 s  ClockTime = 104 s

Time = 0.0003

Courant Number mean: 0.00385425 max: 0.0897419
DILUPBiCGStab:  Solving for Ux, Initial residual = 0.030493, Final residual = 5.10609e-06, No Iterations 5
DILUPBiCGStab:  Solving for Uy, Initial residual = 0.048605, Final residual = 5.49581e-06, No Iterations 5
DILUPBiCGStab:  Solving for Uz, Initial residual = 0.0778257, Final residual = 9.69466e-06, No Iterations 5
linear solve U 407298
PETSc-cg:  Solving for p, Initial residual = 0.0397256, Final residual = 9.97507e-05, No Iterations 652
linear solve p 4654401
time step continuity errors : sum local = 6.72633e-10, global = -7.17114e-23, cumulative = -6.50597e-22
PETSc-cg:  Solving for p, Initial residual = 0.0336514, Final residual = 9.96196e-05, No Iterations 642
linear solve p 4595447
time step continuity errors : sum local = 6.66947e-10, global = 2.09039e-22, cumulative = -4.41558e-22
ExecutionTime = 112.98 s  ClockTime = 114 s

Time = 0.00035

Courant Number mean: 0.00419842 max: 0.0907273
DILUPBiCGStab:  Solving for Ux, Initial residual = 0.0255221, Final residual = 4.25794e-06, No Iterations 5
DILUPBiCGStab:  Solving for Uy, Initial residual = 0.039931, Final residual = 4.05356e-06, No Iterations 5
DILUPBiCGStab:  Solving for Uz, Initial residual = 0.0666163, Final residual = 6.73373e-06, No Iterations 5
linear solve U 399911
PETSc-cg:  Solving for p, Initial residual = 0.0291684, Final residual = 9.9778e-05, No Iterations 633
linear solve p 4527112
time step continuity errors : sum local = 6.94189e-10, global = 3.9248e-22, cumulative = -4.90773e-23
PETSc-cg:  Solving for p, Initial residual = 0.0253426, Final residual = 9.93538e-05, No Iterations 622
linear solve p 4442283
time step continuity errors : sum local = 6.73435e-10, global = 4.14366e-23, cumulative = -7.64076e-24
ExecutionTime = 122.63 s  ClockTime = 124 s

Time = 0.0004

Courant Number mean: 0.0045062 max: 0.0914618
DILUPBiCGStab:  Solving for Ux, Initial residual = 0.0219732, Final residual = 3.55195e-06, No Iterations 5
DILUPBiCGStab:  Solving for Uy, Initial residual = 0.0338792, Final residual = 2.95352e-06, No Iterations 5
DILUPBiCGStab:  Solving for Uz, Initial residual = 0.0581843, Final residual = 5.15182e-06, No Iterations 5
linear solve U 401699
PETSc-cg:  Solving for p, Initial residual = 0.0217488, Final residual = 9.91763e-05, No Iterations 612
linear solve p 4371487
time step continuity errors : sum local = 6.76628e-10, global = 1.95134e-22, cumulative = 1.87494e-22
PETSc-cg:  Solving for p, Initial residual = 0.0192363, Final residual = 9.95688e-05, No Iterations 606
linear solve p 4330130
time step continuity errors : sum local = 6.74197e-10, global = 1.6282e-22, cumulative = 3.50314e-22
ExecutionTime = 132.03 s  ClockTime = 133 s

Time = 0.00045

Courant Number mean: 0.00478564 max: 0.0920366
DILUPBiCGStab:  Solving for Ux, Initial residual = 0.0193071, Final residual = 2.96521e-06, No Iterations 5
DILUPBiCGStab:  Solving for Uy, Initial residual = 0.0293953, Final residual = 2.35145e-06, No Iterations 5
DILUPBiCGStab:  Solving for Uz, Initial residual = 0.0517684, Final residual = 4.16204e-06, No Iterations 5
linear solve U 407043
PETSc-cg:  Solving for p, Initial residual = 0.0181879, Final residual = 9.91836e-05, No Iterations 602
linear solve p 4309542
time step continuity errors : sum local = 6.87289e-10, global = 1.57759e-23, cumulative = 3.6609e-22
PETSc-cg:  Solving for p, Initial residual = 0.0162118, Final residual = 9.89242e-05, No Iterations 595
linear solve p 4266792
time step continuity errors : sum local = 6.75264e-10, global = -3.16319e-23, cumulative = 3.34458e-22
ExecutionTime = 141.3 s  ClockTime = 142 s

Time = 0.0005

Courant Number mean: 0.00504288 max: 0.0925024
DILUPBiCGStab:  Solving for Ux, Initial residual = 0.0172229, Final residual = 2.50006e-06, No Iterations 5
DILUPBiCGStab:  Solving for Uy, Initial residual = 0.0259497, Final residual = 1.91582e-06, No Iterations 5
DILUPBiCGStab:  Solving for Uz, Initial residual = 0.0464959, Final residual = 3.5099e-06, No Iterations 5
linear solve U 404083
PETSc-cg:  Solving for p, Initial residual = 0.0152865, Final residual = 9.88053e-05, No Iterations 593
linear solve p 4241778
time step continuity errors : sum local = 6.79831e-10, global = 1.42316e-22, cumulative = 4.76774e-22
PETSc-cg:  Solving for p, Initial residual = 0.0137129, Final residual = 9.69239e-05, No Iterations 588
linear solve p 4202786
time step continuity errors : sum local = 6.62895e-10, global = 1.93061e-22, cumulative = 6.69836e-22
ExecutionTime = 150.42 s  ClockTime = 151 s

Time = 0.00055

Courant Number mean: 0.0052811 max: 0.0928898
DILUPBiCGStab:  Solving for Ux, Initial residual = 0.0155462, Final residual = 2.13411e-06, No Iterations 5
DILUPBiCGStab:  Solving for Uy, Initial residual = 0.0232132, Final residual = 1.63409e-06, No Iterations 5
DILUPBiCGStab:  Solving for Uz, Initial residual = 0.0422299, Final residual = 3.11004e-06, No Iterations 5
linear solve U 402021
PETSc-cg:  Solving for p, Initial residual = 0.0133056, Final residual = 9.8142e-05, No Iterations 586
linear solve p 4192819
time step continuity errors : sum local = 6.81062e-10, global = -3.00524e-22, cumulative = 3.69312e-22
PETSc-cg:  Solving for p, Initial residual = 0.0119697, Final residual = 9.91399e-05, No Iterations 580
linear solve p 4157888
time step continuity errors : sum local = 6.80947e-10, global = -3.28701e-22, cumulative = 4.0611e-23
ExecutionTime = 159.45 s  ClockTime = 161 s

Time = 0.0006

Courant Number mean: 0.00550384 max: 0.0932185
DILUPBiCGStab:  Solving for Ux, Initial residual = 0.0141659, Final residual = 1.84435e-06, No Iterations 5
DILUPBiCGStab:  Solving for Uy, Initial residual = 0.0209907, Final residual = 1.4219e-06, No Iterations 5
DILUPBiCGStab:  Solving for Uz, Initial residual = 0.0386239, Final residual = 2.80213e-06, No Iterations 5
linear solve U 401606
PETSc-cg:  Solving for p, Initial residual = 0.0117451, Final residual = 9.82108e-05, No Iterations 581
linear solve p 4155845
time step continuity errors : sum local = 6.79791e-10, global = -2.71491e-22, cumulative = -2.3088e-22
PETSc-cg:  Solving for p, Initial residual = 0.0106011, Final residual = 9.81882e-05, No Iterations 576
linear solve p 4115404
time step continuity errors : sum local = 6.75831e-10, global = -4.68549e-22, cumulative = -6.99429e-22
ExecutionTime = 168.42 s  ClockTime = 170 s

Time = 0.00065

Courant Number mean: 0.00571303 max: 0.093502
DILUPBiCGStab:  Solving for Ux, Initial residual = 0.0130114, Final residual = 1.61166e-06, No Iterations 5
DILUPBiCGStab:  Solving for Uy, Initial residual = 0.0191479, Final residual = 1.2597e-06, No Iterations 5
DILUPBiCGStab:  Solving for Uz, Initial residual = 0.0355947, Final residual = 2.59388e-06, No Iterations 5
linear solve U 402728
PETSc-cg:  Solving for p, Initial residual = 0.010454, Final residual = 9.61096e-05, No Iterations 577
linear solve p 4137410
time step continuity errors : sum local = 6.69211e-10, global = 4.76404e-24, cumulative = -6.94665e-22
PETSc-cg:  Solving for p, Initial residual = 0.00945972, Final residual = 9.73573e-05, No Iterations 571
linear solve p 4083808
time step continuity errors : sum local = 6.72674e-10, global = -2.65422e-22, cumulative = -9.60086e-22
ExecutionTime = 177.32 s  ClockTime = 179 s

Time = 0.0007

Courant Number mean: 0.00591026 max: 0.0937498
DILUPBiCGStab:  Solving for Ux, Initial residual = 0.0120286, Final residual = 1.42284e-06, No Iterations 5
DILUPBiCGStab:  Solving for Uy, Initial residual = 0.0175965, Final residual = 1.13045e-06, No Iterations 5
DILUPBiCGStab:  Solving for Uz, Initial residual = 0.0329764, Final residual = 2.41064e-06, No Iterations 5
linear solve U 403201
PETSc-cg:  Solving for p, Initial residual = 0.00942585, Final residual = 9.85126e-05, No Iterations 572
linear solve p 4100089
time step continuity errors : sum local = 6.84669e-10, global = -1.6689e-22, cumulative = -1.12698e-21
PETSc-cg:  Solving for p, Initial residual = 0.00854311, Final residual = 9.82771e-05, No Iterations 566
linear solve p 4051410
time step continuity errors : sum local = 6.79924e-10, global = -3.83114e-23, cumulative = -1.16529e-21
ExecutionTime = 186.15 s  ClockTime = 187 s

Time = 0.00075

Courant Number mean: 0.00609754 max: 0.0939687
DILUPBiCGStab:  Solving for Ux, Initial residual = 0.011182, Final residual = 1.26756e-06, No Iterations 5
DILUPBiCGStab:  Solving for Uy, Initial residual = 0.0162717, Final residual = 1.02605e-06, No Iterations 5
DILUPBiCGStab:  Solving for Uz, Initial residual = 0.0307207, Final residual = 2.27519e-06, No Iterations 5
linear solve U 406555
PETSc-cg:  Solving for p, Initial residual = 0.0085842, Final residual = 9.93983e-05, No Iterations 568
linear solve p 4063457
time step continuity errors : sum local = 6.92937e-10, global = 7.64211e-23, cumulative = -1.08887e-21
PETSc-cg:  Solving for p, Initial residual = 0.00779467, Final residual = 9.94097e-05, No Iterations 562
linear solve p 4024981
time step continuity errors : sum local = 6.8928e-10, global = 1.47419e-23, cumulative = -1.07412e-21
ExecutionTime = 194.92 s  ClockTime = 196 s

Time = 0.0008

Courant Number mean: 0.0062753 max: 0.094164
DILUPBiCGStab:  Solving for Ux, Initial residual = 0.0104455, Final residual = 1.13856e-06, No Iterations 5
DILUPBiCGStab:  Solving for Uy, Initial residual = 0.015128, Final residual = 9.4005e-07, No Iterations 5
DILUPBiCGStab:  Solving for Uz, Initial residual = 0.0287358, Final residual = 2.14307e-06, No Iterations 5
linear solve U 400091
PETSc-cg:  Solving for p, Initial residual = 0.00783633, Final residual = 9.77334e-05, No Iterations 565
linear solve p 4039849
time step continuity errors : sum local = 6.81782e-10, global = -3.4755e-22, cumulative = -1.42167e-21
PETSc-cg:  Solving for p, Initial residual = 0.00712144, Final residual = 9.67142e-05, No Iterations 559
linear solve p 3996936
time step continuity errors : sum local = 6.72305e-10, global = 1.2524e-22, cumulative = -1.29643e-21
ExecutionTime = 203.65 s  ClockTime = 205 s

Time = 0.00085

Courant Number mean: 0.00644506 max: 0.0943396
DILUPBiCGStab:  Solving for Ux, Initial residual = 0.00979762, Final residual = 1.02999e-06, No Iterations 5
DILUPBiCGStab:  Solving for Uy, Initial residual = 0.0141301, Final residual = 8.67902e-07, No Iterations 5
DILUPBiCGStab:  Solving for Uz, Initial residual = 0.0269924, Final residual = 2.03492e-06, No Iterations 5
linear solve U 404717
PETSc-cg:  Solving for p, Initial residual = 0.0071981, Final residual = 9.89975e-05, No Iterations 560
linear solve p 4002852
time step continuity errors : sum local = 6.92031e-10, global = -1.17594e-22, cumulative = -1.41403e-21
PETSc-cg:  Solving for p, Initial residual = 0.00655606, Final residual = 9.91028e-05, No Iterations 555
linear solve p 3971883
time step continuity errors : sum local = 6.8971e-10, global = -1.9691e-22, cumulative = -1.61094e-21
ExecutionTime = 212.31 s  ClockTime = 214 s

Time = 0.0009

Courant Number mean: 0.00660761 max: 0.0944985
DILUPBiCGStab:  Solving for Ux, Initial residual = 0.00922459, Final residual = 9.3778e-07, No Iterations 5
DILUPBiCGStab:  Solving for Uy, Initial residual = 0.0132524, Final residual = 8.06393e-07, No Iterations 5
DILUPBiCGStab:  Solving for Uz, Initial residual = 0.0254366, Final residual = 1.92357e-06, No Iterations 5
linear solve U 406823
PETSc-cg:  Solving for p, Initial residual = 0.00670718, Final residual = 9.84947e-05, No Iterations 558
linear solve p 3998571
time step continuity errors : sum local = 6.88785e-10, global = 2.79781e-22, cumulative = -1.33116e-21
PETSc-cg:  Solving for p, Initial residual = 0.00611006, Final residual = 9.93751e-05, No Iterations 550
linear solve p 3949470
time step continuity errors : sum local = 6.92415e-10, global = 2.77183e-23, cumulative = -1.30344e-21
ExecutionTime = 220.94 s  ClockTime = 222 s

Time = 0.00095

Courant Number mean: 0.00676316 max: 0.0946434
DILUPBiCGStab:  Solving for Ux, Initial residual = 0.00871227, Final residual = 8.58856e-07, No Iterations 5
DILUPBiCGStab:  Solving for Uy, Initial residual = 0.012474, Final residual = 7.53418e-07, No Iterations 5
DILUPBiCGStab:  Solving for Uz, Initial residual = 0.0240506, Final residual = 1.82579e-06, No Iterations 5
linear solve U 399647
PETSc-cg:  Solving for p, Initial residual = 0.00619743, Final residual = 9.90295e-05, No Iterations 553
linear solve p 3956894
time step continuity errors : sum local = 6.93901e-10, global = -1.80256e-22, cumulative = -1.4837e-21
PETSc-cg:  Solving for p, Initial residual = 0.00564851, Final residual = 9.67516e-05, No Iterations 547
linear solve p 3910961
time step continuity errors : sum local = 6.76076e-10, global = -1.54122e-22, cumulative = -1.63782e-21
ExecutionTime = 229.48 s  ClockTime = 231 s

Time = 0.001

Courant Number mean: 0.00691274 max: 0.0947761
DILUPBiCGStab:  Solving for Ux, Initial residual = 0.00825341, Final residual = 7.90736e-07, No Iterations 5
DILUPBiCGStab:  Solving for Uy, Initial residual = 0.0117794, Final residual = 7.07253e-07, No Iterations 5
DILUPBiCGStab:  Solving for Uz, Initial residual = 0.0227985, Final residual = 1.72561e-06, No Iterations 5
linear solve U 407152
PETSc-cg:  Solving for p, Initial residual = 0.00580584, Final residual = 9.7984e-05, No Iterations 552
linear solve p 3953440
time step continuity errors : sum local = 6.86958e-10, global = 3.09143e-22, cumulative = -1.32867e-21
PETSc-cg:  Solving for p, Initial residual = 0.00529226, Final residual = 9.89502e-05, No Iterations 544
linear solve p 3892018
time step continuity errors : sum local = 6.91509e-10, global = -1.65193e-22, cumulative = -1.49387e-21
ExecutionTime = 238.02 s  ClockTime = 240 s

End

Finalizing PETSc
Finalising parallel run
================================================================================
hash: d73396eb898ce288bf8d1ed730d64dde
/*---------------------------------------------------------------------------*\
| =========                 |                                                 |
| \\      /  F ield         | OpenFOAM: The Open Source CFD Toolbox           |
|  \\    /   O peration     | Version:  v2106                                 |
|   \\  /    A nd           | Website:  www.openfoam.com                      |
|    \\/     M anipulation  |                                                 |
\*---------------------------------------------------------------------------*/
Build  : f815a12bba-20210902 OPENFOAM=2106
Arch   : "LSB;label=32;scalar=64"
Exec   : icoFoam -parallel
Date   : Aug 06 2022
Time   : 05:07:14
Host   : nla-gpu2.ianm.kit.edu
PID    : 18943
I/O    : uncollated
Case   : /home/greole/data/code/ogl_labbook/lidDrivenCavity/single_node/mesh/300/matrix_solver/CG_NoPrecond_PETSC_Default/mpiRank_of/32/base
nProcs : 32
Hosts  :
(
    (nla-gpu2.ianm.kit.edu 32)
)
Pstream initialized with:
    floatTransfer      : 0
    nProcsSimpleSum    : 0
    commsType          : nonBlocking
    polling iterations : 0
trapFpe: Floating point exception trapping enabled (FOAM_SIGFPE).
fileModificationChecking : Monitoring run-time modified files using timeStampMaster (fileModificationSkew 5, maxFileModificationPolls 20)
allowSystemOperations : Allowing user-supplied system call operations

// * * * * * * * * * * * * * * * * * * * * * * * * * * * * * * * * * * * * * //
Create time

Create mesh for time = 0


PISO: Operating solver in PISO mode

Reading transportProperties

Reading field p

Reading field U

Reading/calculating face flux field phi


Starting time loop

Time = 3.33333e-05

Courant Number mean: 0 max: 0
DILUPBiCGStab:  Solving for Ux, Initial residual = 1, Final residual = 0.00055784, No Iterations 5
DILUPBiCGStab:  Solving for Uy:  solution singularity
DILUPBiCGStab:  Solving for Uz:  solution singularity
linear solve U 819704
Initializing PETSc
PETSc-cg:  Solving for p, Initial residual = 1, Final residual = 9.90576e-05, No Iterations 2434
linear solve p 71771988
time step continuity errors : sum local = 3.65953e-10, global = -2.25163e-22, cumulative = -2.25163e-22
PETSc-cg:  Solving for p, Initial residual = 0.689571, Final residual = 9.98096e-05, No Iterations 2411
linear solve p 70357731
time step continuity errors : sum local = 5.10404e-10, global = -1.64109e-23, cumulative = -2.41574e-22
ExecutionTime = 148.42 s  ClockTime = 149 s

Time = 6.66667e-05

Courant Number mean: 0.00132221 max: 0.0715445
DILUPBiCGStab:  Solving for Ux, Initial residual = 0.172371, Final residual = 0.000360522, No Iterations 5
DILUPBiCGStab:  Solving for Uy, Initial residual = 0.340821, Final residual = 0.000344801, No Iterations 5
DILUPBiCGStab:  Solving for Uz, Initial residual = 0.994559, Final residual = 0.00131661, No Iterations 5
linear solve U 1548316
PETSc-cg:  Solving for p, Initial residual = 0.597092, Final residual = 9.82601e-05, No Iterations 2358
linear solve p 68818828
time step continuity errors : sum local = 5.1519e-10, global = -3.718e-25, cumulative = -2.41946e-22
PETSc-cg:  Solving for p, Initial residual = 0.517698, Final residual = 9.86682e-05, No Iterations 2353
linear solve p 68667509
time step continuity errors : sum local = 5.29418e-10, global = -1.50777e-22, cumulative = -3.92722e-22
ExecutionTime = 287.94 s  ClockTime = 290 s

Time = 0.0001

Courant Number mean: 0.00202508 max: 0.0848304
DILUPBiCGStab:  Solving for Ux, Initial residual = 0.0717005, Final residual = 0.000113789, No Iterations 5
DILUPBiCGStab:  Solving for Uy, Initial residual = 0.137147, Final residual = 8.65348e-05, No Iterations 5
DILUPBiCGStab:  Solving for Uz, Initial residual = 0.202076, Final residual = 0.000338227, No Iterations 5
linear solve U 1540808
PETSc-cg:  Solving for p, Initial residual = 0.423612, Final residual = 9.93043e-05, No Iterations 2304
linear solve p 67235191
time step continuity errors : sum local = 3.75018e-10, global = -3.63265e-24, cumulative = -3.96355e-22
PETSc-cg:  Solving for p, Initial residual = 0.367959, Final residual = 9.97923e-05, No Iterations 2295
linear solve p 66991558
time step continuity errors : sum local = 3.69472e-10, global = -5.54292e-23, cumulative = -4.51784e-22
ExecutionTime = 424.19 s  ClockTime = 427 s

Time = 0.000133333

Courant Number mean: 0.00251196 max: 0.0887239
DILUPBiCGStab:  Solving for Ux, Initial residual = 0.046687, Final residual = 5.06149e-05, No Iterations 5
DILUPBiCGStab:  Solving for Uy, Initial residual = 0.086216, Final residual = 3.83565e-05, No Iterations 5
DILUPBiCGStab:  Solving for Uz, Initial residual = 0.114972, Final residual = 0.000133078, No Iterations 5
linear solve U 1558465
PETSc-cg:  Solving for p, Initial residual = 0.212612, Final residual = 9.75943e-05, No Iterations 2307
linear solve p 67321915
time step continuity errors : sum local = 3.30814e-10, global = -1.43893e-22, cumulative = -5.95678e-22
PETSc-cg:  Solving for p, Initial residual = 0.173508, Final residual = 9.95712e-05, No Iterations 1112
linear solve p 32526629
time step continuity errors : sum local = 3.70274e-10, global = -4.45609e-23, cumulative = -6.40238e-22
ExecutionTime = 526.25 s  ClockTime = 529 s

Time = 0.000166667

Courant Number mean: 0.00290332 max: 0.0905868
DILUPBiCGStab:  Solving for Ux, Initial residual = 0.0352256, Final residual = 2.64213e-05, No Iterations 5
DILUPBiCGStab:  Solving for Uy, Initial residual = 0.0624823, Final residual = 2.67489e-05, No Iterations 5
DILUPBiCGStab:  Solving for Uz, Initial residual = 0.094758, Final residual = 8.04253e-05, No Iterations 5
linear solve U 1549367
PETSc-cg:  Solving for p, Initial residual = 0.123131, Final residual = 9.81941e-05, No Iterations 2291
linear solve p 66881854
time step continuity errors : sum local = 3.09444e-10, global = -1.32834e-22, cumulative = -7.73073e-22
PETSc-cg:  Solving for p, Initial residual = 0.102215, Final residual = 9.96535e-05, No Iterations 1082
linear solve p 31639458
time step continuity errors : sum local = 3.39606e-10, global = -2.15553e-22, cumulative = -9.88626e-22
ExecutionTime = 626.99 s  ClockTime = 630 s

Time = 0.0002

Courant Number mean: 0.00323631 max: 0.0917316
DILUPBiCGStab:  Solving for Ux, Initial residual = 0.0285092, Final residual = 2.02756e-05, No Iterations 5
DILUPBiCGStab:  Solving for Uy, Initial residual = 0.0490416, Final residual = 1.85611e-05, No Iterations 5
DILUPBiCGStab:  Solving for Uz, Initial residual = 0.0823337, Final residual = 6.03916e-05, No Iterations 5
linear solve U 1539563
PETSc-cg:  Solving for p, Initial residual = 0.0736926, Final residual = 9.9664e-05, No Iterations 2276
linear solve p 66431210
time step continuity errors : sum local = 3.08092e-10, global = -1.38336e-22, cumulative = -1.12696e-21
PETSc-cg:  Solving for p, Initial residual = 0.0621134, Final residual = 9.91216e-05, No Iterations 2268
linear solve p 66199446
time step continuity errors : sum local = 3.07411e-10, global = -1.39828e-22, cumulative = -1.26679e-21
ExecutionTime = 761.62 s  ClockTime = 766 s

Time = 0.000233333

Courant Number mean: 0.00352922 max: 0.0925278
DILUPBiCGStab:  Solving for Ux, Initial residual = 0.024018, Final residual = 1.57188e-05, No Iterations 5
DILUPBiCGStab:  Solving for Uy, Initial residual = 0.0403837, Final residual = 1.61842e-05, No Iterations 5
DILUPBiCGStab:  Solving for Uz, Initial residual = 0.0667795, Final residual = 3.34538e-05, No Iterations 5
linear solve U 1540408
PETSc-cg:  Solving for p, Initial residual = 0.0484759, Final residual = 9.90677e-05, No Iterations 965
linear solve p 28235031
time step continuity errors : sum local = 3.09351e-10, global = -1.92864e-22, cumulative = -1.45965e-21
PETSc-cg:  Solving for p, Initial residual = 0.0417398, Final residual = 9.94267e-05, No Iterations 962
linear solve p 28157167
time step continuity errors : sum local = 3.08703e-10, global = -1.09087e-23, cumulative = -1.47056e-21
ExecutionTime = 820.44 s  ClockTime = 825 s

Time = 0.000266667

Courant Number mean: 0.0037923 max: 0.0931232
DILUPBiCGStab:  Solving for Ux, Initial residual = 0.0207945, Final residual = 1.24478e-05, No Iterations 5
DILUPBiCGStab:  Solving for Uy, Initial residual = 0.0342907, Final residual = 1.22574e-05, No Iterations 5
DILUPBiCGStab:  Solving for Uz, Initial residual = 0.0587876, Final residual = 2.41324e-05, No Iterations 5
linear solve U 1542503
PETSc-cg:  Solving for p, Initial residual = 0.0332749, Final residual = 9.97694e-05, No Iterations 958
linear solve p 28035760
time step continuity errors : sum local = 3.12305e-10, global = -1.51822e-22, cumulative = -1.62239e-21
PETSc-cg:  Solving for p, Initial residual = 0.0293898, Final residual = 9.98879e-05, No Iterations 946
linear solve p 27690227
time step continuity errors : sum local = 3.04445e-10, global = -2.85378e-22, cumulative = -1.90776e-21
ExecutionTime = 878.59 s  ClockTime = 883 s

Time = 0.0003

Courant Number mean: 0.00403212 max: 0.0935901
DILUPBiCGStab:  Solving for Ux, Initial residual = 0.0183556, Final residual = 1.00153e-05, No Iterations 5
DILUPBiCGStab:  Solving for Uy, Initial residual = 0.0298011, Final residual = 1.06539e-05, No Iterations 5
DILUPBiCGStab:  Solving for Uz, Initial residual = 0.0521286, Final residual = 1.80298e-05, No Iterations 5
linear solve U 1530153
PETSc-cg:  Solving for p, Initial residual = 0.0262103, Final residual = 9.98722e-05, No Iterations 946
linear solve p 27673732
time step continuity errors : sum local = 3.09246e-10, global = -2.12693e-22, cumulative = -2.12046e-21
PETSc-cg:  Solving for p, Initial residual = 0.023609, Final residual = 9.79987e-05, No Iterations 937
linear solve p 27424214
time step continuity errors : sum local = 3.01563e-10, global = -2.7541e-22, cumulative = -2.39587e-21
ExecutionTime = 936.05 s  ClockTime = 941 s

Time = 0.000333333

Courant Number mean: 0.00425338 max: 0.093969
DILUPBiCGStab:  Solving for Ux, Initial residual = 0.0164442, Final residual = 8.26893e-06, No Iterations 5
DILUPBiCGStab:  Solving for Uy, Initial residual = 0.0263239, Final residual = 8.78339e-06, No Iterations 5
DILUPBiCGStab:  Solving for Uz, Initial residual = 0.0472607, Final residual = 1.41625e-05, No Iterations 5
linear solve U 1537782
PETSc-cg:  Solving for p, Initial residual = 0.0203634, Final residual = 9.60386e-05, No Iterations 938
linear solve p 27446971
time step continuity errors : sum local = 2.99573e-10, global = 1.30022e-24, cumulative = -2.39457e-21
PETSc-cg:  Solving for p, Initial residual = 0.0186814, Final residual = 9.95087e-05, No Iterations 913
linear solve p 26724480
time step continuity errors : sum local = 3.03347e-10, global = -2.07222e-22, cumulative = -2.60179e-21
ExecutionTime = 992.65 s  ClockTime = 998 s

Time = 0.000366667

Courant Number mean: 0.00445915 max: 0.0942844
DILUPBiCGStab:  Solving for Ux, Initial residual = 0.0148966, Final residual = 7.02896e-06, No Iterations 5
DILUPBiCGStab:  Solving for Uy, Initial residual = 0.0235779, Final residual = 7.6664e-06, No Iterations 5
DILUPBiCGStab:  Solving for Uz, Initial residual = 0.0428561, Final residual = 1.16981e-05, No Iterations 5
linear solve U 1534944
PETSc-cg:  Solving for p, Initial residual = 0.0174336, Final residual = 9.92524e-05, No Iterations 965
linear solve p 28245086
time step continuity errors : sum local = 3.06896e-10, global = -3.76457e-22, cumulative = -2.97825e-21
PETSc-cg:  Solving for p, Initial residual = 0.0160551, Final residual = 9.9969e-05, No Iterations 941
linear solve p 27540160
time step continuity errors : sum local = 3.06831e-10, global = -3.02997e-23, cumulative = -3.00854e-21
ExecutionTime = 1050.85 s  ClockTime = 1057 s

Time = 0.0004

Courant Number mean: 0.0046517 max: 0.0945522
DILUPBiCGStab:  Solving for Ux, Initial residual = 0.013623, Final residual = 6.14188e-06, No Iterations 5
DILUPBiCGStab:  Solving for Uy, Initial residual = 0.021334, Final residual = 6.64309e-06, No Iterations 5
DILUPBiCGStab:  Solving for Uz, Initial residual = 0.0394678, Final residual = 9.55993e-06, No Iterations 5
linear solve U 1531251
PETSc-cg:  Solving for p, Initial residual = 0.0149378, Final residual = 9.91662e-05, No Iterations 941
linear solve p 27553047
time step continuity errors : sum local = 3.08648e-10, global = -1.09627e-22, cumulative = -3.11817e-21
PETSc-cg:  Solving for p, Initial residual = 0.0139121, Final residual = 9.89392e-05, No Iterations 898
linear solve p 26293556
time step continuity errors : sum local = 3.02226e-10, global = -3.21493e-22, cumulative = -3.43967e-21
ExecutionTime = 1107.11 s  ClockTime = 1113 s

Time = 0.000433333

Courant Number mean: 0.00483329 max: 0.0947834
DILUPBiCGStab:  Solving for Ux, Initial residual = 0.0125491, Final residual = 5.43061e-06, No Iterations 5
DILUPBiCGStab:  Solving for Uy, Initial residual = 0.0194814, Final residual = 5.88914e-06, No Iterations 5
DILUPBiCGStab:  Solving for Uz, Initial residual = 0.036325, Final residual = 8.32646e-06, No Iterations 5
linear solve U 1540414
PETSc-cg:  Solving for p, Initial residual = 0.0132061, Final residual = 9.97907e-05, No Iterations 977
linear solve p 28600332
time step continuity errors : sum local = 3.0842e-10, global = -2.60199e-22, cumulative = -3.69986e-21
PETSc-cg:  Solving for p, Initial residual = 0.0123164, Final residual = 9.84644e-05, No Iterations 960
linear solve p 28094530
time step continuity errors : sum local = 3.02037e-10, global = -1.51469e-22, cumulative = -3.85133e-21
ExecutionTime = 1166.21 s  ClockTime = 1173 s

Time = 0.000466667

Courant Number mean: 0.00500486 max: 0.0949855
DILUPBiCGStab:  Solving for Ux, Initial residual = 0.0116359, Final residual = 4.85175e-06, No Iterations 5
DILUPBiCGStab:  Solving for Uy, Initial residual = 0.0179139, Final residual = 5.25151e-06, No Iterations 5
DILUPBiCGStab:  Solving for Uz, Initial residual = 0.0337719, Final residual = 6.98619e-06, No Iterations 5
linear solve U 1532428
PETSc-cg:  Solving for p, Initial residual = 0.0118909, Final residual = 9.94829e-05, No Iterations 888
linear solve p 26001639
time step continuity errors : sum local = 3.09445e-10, global = -3.01098e-22, cumulative = -4.15243e-21
PETSc-cg:  Solving for p, Initial residual = 0.0111272, Final residual = 9.89525e-05, No Iterations 876
linear solve p 25644627
time step continuity errors : sum local = 3.02885e-10, global = -1.56138e-22, cumulative = -4.30857e-21
ExecutionTime = 1220.28 s  ClockTime = 1227 s

Time = 0.0005

Courant Number mean: 0.00516807 max: 0.0951642
DILUPBiCGStab:  Solving for Ux, Initial residual = 0.0108445, Final residual = 4.37279e-06, No Iterations 5
DILUPBiCGStab:  Solving for Uy, Initial residual = 0.0165797, Final residual = 4.74186e-06, No Iterations 5
DILUPBiCGStab:  Solving for Uz, Initial residual = 0.0313729, Final residual = 6.31517e-06, No Iterations 5
linear solve U 1529529
PETSc-cg:  Solving for p, Initial residual = 0.0107957, Final residual = 9.77208e-05, No Iterations 961
linear solve p 28132400
time step continuity errors : sum local = 3.01898e-10, global = -2.24854e-22, cumulative = -4.53342e-21
PETSc-cg:  Solving for p, Initial residual = 0.0101043, Final residual = 9.96092e-05, No Iterations 942
linear solve p 27573774
time step continuity errors : sum local = 3.05408e-10, global = -3.9443e-22, cumulative = -4.92785e-21
ExecutionTime = 1278.4 s  ClockTime = 1285 s

Time = 0.000533333

Courant Number mean: 0.00532341 max: 0.0953237
DILUPBiCGStab:  Solving for Ux, Initial residual = 0.0101558, Final residual = 3.97513e-06, No Iterations 5
DILUPBiCGStab:  Solving for Uy, Initial residual = 0.0154236, Final residual = 4.31191e-06, No Iterations 5
DILUPBiCGStab:  Solving for Uz, Initial residual = 0.0294695, Final residual = 5.46351e-06, No Iterations 5
linear solve U 1534571
PETSc-cg:  Solving for p, Initial residual = 0.00986882, Final residual = 9.95792e-05, No Iterations 879
linear solve p 25744998
time step continuity errors : sum local = 3.09668e-10, global = -3.49138e-22, cumulative = -5.27699e-21
PETSc-cg:  Solving for p, Initial residual = 0.00923967, Final residual = 9.92126e-05, No Iterations 868
linear solve p 25415500
time step continuity errors : sum local = 3.04231e-10, global = -2.88088e-22, cumulative = -5.56508e-21
ExecutionTime = 1331.99 s  ClockTime = 1339 s

Time = 0.000566667

Courant Number mean: 0.00547212 max: 0.0954671
DILUPBiCGStab:  Solving for Ux, Initial residual = 0.00954797, Final residual = 3.63971e-06, No Iterations 5
DILUPBiCGStab:  Solving for Uy, Initial residual = 0.0144178, Final residual = 3.95497e-06, No Iterations 5
DILUPBiCGStab:  Solving for Uz, Initial residual = 0.0276314, Final residual = 5.04234e-06, No Iterations 5
linear solve U 1535243
PETSc-cg:  Solving for p, Initial residual = 0.00914914, Final residual = 9.93026e-05, No Iterations 953
linear solve p 27902739
time step continuity errors : sum local = 3.06548e-10, global = -1.87658e-22, cumulative = -5.75274e-21
PETSc-cg:  Solving for p, Initial residual = 0.00858209, Final residual = 9.99819e-05, No Iterations 938
linear solve p 27446678
time step continuity errors : sum local = 3.06476e-10, global = -2.394e-22, cumulative = -5.99214e-21
ExecutionTime = 1389.76 s  ClockTime = 1397 s

Time = 0.0006

Courant Number mean: 0.00561448 max: 0.0955971
DILUPBiCGStab:  Solving for Ux, Initial residual = 0.00900951, Final residual = 3.35595e-06, No Iterations 5
DILUPBiCGStab:  Solving for Uy, Initial residual = 0.0135299, Final residual = 3.64938e-06, No Iterations 5
DILUPBiCGStab:  Solving for Uz, Initial residual = 0.0261088, Final residual = 4.48305e-06, No Iterations 5
linear solve U 1532334
PETSc-cg:  Solving for p, Initial residual = 0.00842759, Final residual = 9.98499e-05, No Iterations 868
linear solve p 25431593
time step continuity errors : sum local = 3.10484e-10, global = -4.30896e-22, cumulative = -6.42303e-21
PETSc-cg:  Solving for p, Initial residual = 0.0079034, Final residual = 9.90046e-05, No Iterations 857
linear solve p 25089782
time step continuity errors : sum local = 3.04087e-10, global = -1.21772e-22, cumulative = -6.5448e-21
ExecutionTime = 1442.71 s  ClockTime = 1451 s

Time = 0.000633333

Courant Number mean: 0.00575138 max: 0.0957155
DILUPBiCGStab:  Solving for Ux, Initial residual = 0.00852675, Final residual = 3.11244e-06, No Iterations 5
DILUPBiCGStab:  Solving for Uy, Initial residual = 0.0127447, Final residual = 3.39041e-06, No Iterations 5
DILUPBiCGStab:  Solving for Uz, Initial residual = 0.0246421, Final residual = 4.20315e-06, No Iterations 5
linear solve U 1531863
PETSc-cg:  Solving for p, Initial residual = 0.00794471, Final residual = 9.89143e-05, No Iterations 942
linear solve p 27574200
time step continuity errors : sum local = 3.05172e-10, global = -3.40625e-22, cumulative = -6.88543e-21
PETSc-cg:  Solving for p, Initial residual = 0.00744788, Final residual = 9.99745e-05, No Iterations 908
linear solve p 26593844
time step continuity errors : sum local = 3.06407e-10, global = -2.88228e-22, cumulative = -7.17366e-21
ExecutionTime = 1499.29 s  ClockTime = 1507 s

Time = 0.000666667

Courant Number mean: 0.00588313 max: 0.095824
DILUPBiCGStab:  Solving for Ux, Initial residual = 0.00809389, Final residual = 2.90216e-06, No Iterations 5
DILUPBiCGStab:  Solving for Uy, Initial residual = 0.0120416, Final residual = 3.16745e-06, No Iterations 5
DILUPBiCGStab:  Solving for Uz, Initial residual = 0.0234316, Final residual = 3.85605e-06, No Iterations 5
linear solve U 1530427
PETSc-cg:  Solving for p, Initial residual = 0.00733043, Final residual = 9.99794e-05, No Iterations 869
linear solve p 25454699
time step continuity errors : sum local = 3.10919e-10, global = -2.20508e-22, cumulative = -7.39417e-21
PETSc-cg:  Solving for p, Initial residual = 0.00686781, Final residual = 9.81027e-05, No Iterations 856
linear solve p 25068972
time step continuity errors : sum local = 3.01765e-10, global = -4.6663e-22, cumulative = -7.8608e-21
ExecutionTime = 1552.26 s  ClockTime = 1561 s

End

Finalizing PETSc
Finalising parallel run
================================================================================
hash: ae957441057ac2ba88116ee17ce92f9c
/*---------------------------------------------------------------------------*\
| =========                 |                                                 |
| \\      /  F ield         | OpenFOAM: The Open Source CFD Toolbox           |
|  \\    /   O peration     | Version:  v2106                                 |
|   \\  /    A nd           | Website:  www.openfoam.com                      |
|    \\/     M anipulation  |                                                 |
\*---------------------------------------------------------------------------*/
Build  : f815a12bba-20210902 OPENFOAM=2106
Arch   : "LSB;label=32;scalar=64"
Exec   : icoFoam -parallel
Date   : Aug 06 2022
Time   : 05:33:19
Host   : nla-gpu2.ianm.kit.edu
PID    : 19366
I/O    : uncollated
Case   : /home/greole/data/code/ogl_labbook/lidDrivenCavity/single_node/mesh/400/matrix_solver/CG_NoPrecond_PETSC_Default/mpiRank_of/32/base
nProcs : 32
Hosts  :
(
    (nla-gpu2.ianm.kit.edu 32)
)
Pstream initialized with:
    floatTransfer      : 0
    nProcsSimpleSum    : 0
    commsType          : nonBlocking
    polling iterations : 0
trapFpe: Floating point exception trapping enabled (FOAM_SIGFPE).
fileModificationChecking : Monitoring run-time modified files using timeStampMaster (fileModificationSkew 5, maxFileModificationPolls 20)
allowSystemOperations : Allowing user-supplied system call operations

// * * * * * * * * * * * * * * * * * * * * * * * * * * * * * * * * * * * * * //
Create time

Create mesh for time = 0


PISO: Operating solver in PISO mode

Reading transportProperties

Reading field p

Reading field U

Reading/calculating face flux field phi


Starting time loop

Time = 2.5e-05

Courant Number mean: 0 max: 0
DILUPBiCGStab:  Solving for Ux, Initial residual = 1, Final residual = 0.00138472, No Iterations 5
DILUPBiCGStab:  Solving for Uy:  solution singularity
DILUPBiCGStab:  Solving for Uz:  solution singularity
linear solve U 1905971
Initializing PETSc
PETSc-cg:  Solving for p, Initial residual = 1, Final residual = 9.92545e-05, No Iterations 3256
linear solve p 220467671
time step continuity errors : sum local = 2.41817e-10, global = 2.33965e-22, cumulative = 2.33965e-22
PETSc-cg:  Solving for p, Initial residual = 0.71766, Final residual = 9.9849e-05, No Iterations 3237
linear solve p 217655374
time step continuity errors : sum local = 3.27515e-10, global = 1.50411e-24, cumulative = 2.35469e-22
ExecutionTime = 451.96 s  ClockTime = 455 s

Time = 5e-05

Courant Number mean: 0.00116724 max: 0.075131
DILUPBiCGStab:  Solving for Ux, Initial residual = 0.159863, Final residual = 0.000886592, No Iterations 5
DILUPBiCGStab:  Solving for Uy, Initial residual = 0.348724, Final residual = 0.000948013, No Iterations 5
DILUPBiCGStab:  Solving for Uz, Initial residual = 0.994661, Final residual = 0.00355307, No Iterations 5
linear solve U 3673925
PETSc-cg:  Solving for p, Initial residual = 0.662877, Final residual = 9.88161e-05, No Iterations 3180
linear solve p 213794957
time step continuity errors : sum local = 3.55247e-10, global = 1.07086e-23, cumulative = 2.46178e-22
PETSc-cg:  Solving for p, Initial residual = 0.588461, Final residual = 9.89406e-05, No Iterations 3174
linear solve p 213349515
time step continuity errors : sum local = 3.61921e-10, global = 2.5645e-23, cumulative = 2.71823e-22
ExecutionTime = 883.52 s  ClockTime = 888 s

Time = 7.5e-05

Courant Number mean: 0.0017804 max: 0.0870161
DILUPBiCGStab:  Solving for Ux, Initial residual = 0.0661614, Final residual = 0.000264838, No Iterations 5
DILUPBiCGStab:  Solving for Uy, Initial residual = 0.138226, Final residual = 0.000268004, No Iterations 5
DILUPBiCGStab:  Solving for Uz, Initial residual = 0.438204, Final residual = 0.00189001, No Iterations 5
linear solve U 3668780
PETSc-cg:  Solving for p, Initial residual = 0.561916, Final residual = 9.92798e-05, No Iterations 3133
linear solve p 210689166
time step continuity errors : sum local = 2.54183e-10, global = -3.40229e-23, cumulative = 2.378e-22
PETSc-cg:  Solving for p, Initial residual = 0.504392, Final residual = 9.91937e-05, No Iterations 3126
linear solve p 210204355
time step continuity errors : sum local = 2.48546e-10, global = -3.07355e-23, cumulative = 2.07064e-22
ExecutionTime = 1308.77 s  ClockTime = 1316 s

Time = 0.0001

Courant Number mean: 0.00220759 max: 0.090316
DILUPBiCGStab:  Solving for Ux, Initial residual = 0.0437032, Final residual = 0.000117706, No Iterations 5
DILUPBiCGStab:  Solving for Uy, Initial residual = 0.0872305, Final residual = 0.000107908, No Iterations 5
DILUPBiCGStab:  Solving for Uz, Initial residual = 0.134067, Final residual = 0.000387159, No Iterations 5
linear solve U 3678479
PETSc-cg:  Solving for p, Initial residual = 0.326172, Final residual = 9.97911e-05, No Iterations 1487
linear solve p 100125083
time step continuity errors : sum local = 2.3169e-10, global = 9.43568e-24, cumulative = 2.165e-22
PETSc-cg:  Solving for p, Initial residual = 0.271546, Final residual = 9.85808e-05, No Iterations 1467
linear solve p 98777171
time step continuity errors : sum local = 2.20296e-10, global = 1.11713e-22, cumulative = 3.28213e-22
ExecutionTime = 1513.1 s  ClockTime = 1521 s

Time = 0.000125

Courant Number mean: 0.00255333 max: 0.091904
DILUPBiCGStab:  Solving for Ux, Initial residual = 0.0332648, Final residual = 7.29166e-05, No Iterations 5
DILUPBiCGStab:  Solving for Uy, Initial residual = 0.0630336, Final residual = 6.55547e-05, No Iterations 5
DILUPBiCGStab:  Solving for Uz, Initial residual = 0.0922799, Final residual = 0.000256897, No Iterations 5
linear solve U 3677330
PETSc-cg:  Solving for p, Initial residual = 0.218998, Final residual = 9.90185e-05, No Iterations 1437
linear solve p 96757002
time step continuity errors : sum local = 1.92495e-10, global = -7.40663e-23, cumulative = 2.54147e-22
PETSc-cg:  Solving for p, Initial residual = 0.184874, Final residual = 9.81575e-05, No Iterations 1434
linear solve p 96607152
time step continuity errors : sum local = 1.8773e-10, global = -6.24237e-23, cumulative = 1.91723e-22
ExecutionTime = 1711.94 s  ClockTime = 1721 s

Time = 0.00015

Courant Number mean: 0.00284853 max: 0.0928884
DILUPBiCGStab:  Solving for Ux, Initial residual = 0.0270568, Final residual = 5.00341e-05, No Iterations 5
DILUPBiCGStab:  Solving for Uy, Initial residual = 0.0495079, Final residual = 3.20568e-05, No Iterations 5
DILUPBiCGStab:  Solving for Uz, Initial residual = 0.0804528, Final residual = 0.000162312, No Iterations 5
linear solve U 3676591
PETSc-cg:  Solving for p, Initial residual = 0.131867, Final residual = 9.74401e-05, No Iterations 1451
linear solve p 97704708
time step continuity errors : sum local = 1.95792e-10, global = -4.7433e-23, cumulative = 1.4429e-22
PETSc-cg:  Solving for p, Initial residual = 0.109336, Final residual = 9.867e-05, No Iterations 1375
linear solve p 92613992
time step continuity errors : sum local = 1.89005e-10, global = 2.97423e-23, cumulative = 1.74033e-22
ExecutionTime = 1907.79 s  ClockTime = 1918 s

Time = 0.000175

Courant Number mean: 0.00310899 max: 0.0935743
DILUPBiCGStab:  Solving for Ux, Initial residual = 0.0228913, Final residual = 3.66687e-05, No Iterations 5
DILUPBiCGStab:  Solving for Uy, Initial residual = 0.0407774, Final residual = 2.86052e-05, No Iterations 5
DILUPBiCGStab:  Solving for Uz, Initial residual = 0.0683236, Final residual = 0.000108483, No Iterations 5
linear solve U 3673197
PETSc-cg:  Solving for p, Initial residual = 0.0907172, Final residual = 9.88532e-05, No Iterations 1427
linear solve p 96111598
time step continuity errors : sum local = 1.84446e-10, global = 2.564e-23, cumulative = 1.99673e-22
PETSc-cg:  Solving for p, Initial residual = 0.0760156, Final residual = 9.83514e-05, No Iterations 1380
linear solve p 92935571
time step continuity errors : sum local = 1.77587e-10, global = 5.28247e-23, cumulative = 2.52497e-22
ExecutionTime = 2102.35 s  ClockTime = 2113 s

Time = 0.0002

Courant Number mean: 0.00334351 max: 0.0940885
DILUPBiCGStab:  Solving for Ux, Initial residual = 0.0199009, Final residual = 2.8084e-05, No Iterations 5
DILUPBiCGStab:  Solving for Uy, Initial residual = 0.0346169, Final residual = 2.08578e-05, No Iterations 5
DILUPBiCGStab:  Solving for Uz, Initial residual = 0.061087, Final residual = 8.09709e-05, No Iterations 5
linear solve U 3680090
PETSc-cg:  Solving for p, Initial residual = 0.0587773, Final residual = 9.95221e-05, No Iterations 2976
linear solve p 200154980
time step continuity errors : sum local = 1.76641e-10, global = -1.08236e-23, cumulative = 2.41674e-22
PETSc-cg:  Solving for p, Initial residual = 0.0504995, Final residual = 9.87964e-05, No Iterations 1441
linear solve p 97033526
time step continuity errors : sum local = 1.90717e-10, global = -5.5699e-23, cumulative = 1.85975e-22
ExecutionTime = 2404.56 s  ClockTime = 2417 s

Time = 0.000225

Courant Number mean: 0.00355785 max: 0.094492
DILUPBiCGStab:  Solving for Ux, Initial residual = 0.0176117, Final residual = 2.19627e-05, No Iterations 5
DILUPBiCGStab:  Solving for Uy, Initial residual = 0.0301157, Final residual = 1.90959e-05, No Iterations 5
DILUPBiCGStab:  Solving for Uz, Initial residual = 0.0557599, Final residual = 8.3627e-05, No Iterations 5
linear solve U 3667660
PETSc-cg:  Solving for p, Initial residual = 0.0437157, Final residual = 9.94131e-05, No Iterations 2958
linear solve p 198877080
time step continuity errors : sum local = 1.74988e-10, global = -6.46573e-23, cumulative = 1.21318e-22
PETSc-cg:  Solving for p, Initial residual = 0.0379187, Final residual = 9.96186e-05, No Iterations 2943
linear solve p 197880535
time step continuity errors : sum local = 1.75402e-10, global = -8.12907e-23, cumulative = 4.00269e-23
ExecutionTime = 2805.82 s  ClockTime = 2820 s

Time = 0.00025

Courant Number mean: 0.00375594 max: 0.0948197
DILUPBiCGStab:  Solving for Ux, Initial residual = 0.0158256, Final residual = 1.76788e-05, No Iterations 5
DILUPBiCGStab:  Solving for Uy, Initial residual = 0.0265961, Final residual = 1.60166e-05, No Iterations 5
DILUPBiCGStab:  Solving for Uz, Initial residual = 0.0473529, Final residual = 5.31135e-05, No Iterations 5
linear solve U 3674642
PETSc-cg:  Solving for p, Initial residual = 0.0320096, Final residual = 9.96635e-05, No Iterations 1274
linear solve p 85813181
time step continuity errors : sum local = 1.88657e-10, global = -5.46857e-23, cumulative = -1.46588e-23
PETSc-cg:  Solving for p, Initial residual = 0.0285183, Final residual = 9.95522e-05, No Iterations 1241
linear solve p 83617384
time step continuity errors : sum local = 1.80354e-10, global = 5.7405e-24, cumulative = -8.91828e-24
ExecutionTime = 2980.85 s  ClockTime = 2996 s

Time = 0.000275

Courant Number mean: 0.00394045 max: 0.0950927
DILUPBiCGStab:  Solving for Ux, Initial residual = 0.0143678, Final residual = 1.45315e-05, No Iterations 5
DILUPBiCGStab:  Solving for Uy, Initial residual = 0.0238367, Final residual = 1.44842e-05, No Iterations 5
DILUPBiCGStab:  Solving for Uz, Initial residual = 0.0438234, Final residual = 4.62139e-05, No Iterations 5
linear solve U 3674979
PETSc-cg:  Solving for p, Initial residual = 0.0258155, Final residual = 9.99767e-05, No Iterations 1312
linear solve p 88371252
time step continuity errors : sum local = 1.825e-10, global = -6.81015e-23, cumulative = -7.70198e-23
PETSc-cg:  Solving for p, Initial residual = 0.0233874, Final residual = 9.96593e-05, No Iterations 1254
linear solve p 84499509
time step continuity errors : sum local = 1.74762e-10, global = 9.96072e-23, cumulative = 2.25874e-23
ExecutionTime = 3159.31 s  ClockTime = 3176 s

Time = 0.0003

Courant Number mean: 0.00411347 max: 0.0953247
DILUPBiCGStab:  Solving for Ux, Initial residual = 0.0131727, Final residual = 1.2215e-05, No Iterations 5
DILUPBiCGStab:  Solving for Uy, Initial residual = 0.0215646, Final residual = 1.27283e-05, No Iterations 5
DILUPBiCGStab:  Solving for Uz, Initial residual = 0.0410088, Final residual = 4.17652e-05, No Iterations 5
linear solve U 3684745
PETSc-cg:  Solving for p, Initial residual = 0.0206832, Final residual = 9.89746e-05, No Iterations 1435
linear solve p 96607721
time step continuity errors : sum local = 1.90277e-10, global = -8.63396e-23, cumulative = -6.37521e-23
PETSc-cg:  Solving for p, Initial residual = 0.0191765, Final residual = 9.91572e-05, No Iterations 1347
linear solve p 90705225
time step continuity errors : sum local = 1.80308e-10, global = 5.38514e-23, cumulative = -9.90072e-24
ExecutionTime = 3352.18 s  ClockTime = 3370 s

Time = 0.000325

Courant Number mean: 0.00427673 max: 0.0955249
DILUPBiCGStab:  Solving for Ux, Initial residual = 0.0121539, Final residual = 1.04581e-05, No Iterations 5
DILUPBiCGStab:  Solving for Uy, Initial residual = 0.0197134, Final residual = 1.15664e-05, No Iterations 5
DILUPBiCGStab:  Solving for Uz, Initial residual = 0.0380464, Final residual = 4.19431e-05, No Iterations 5
linear solve U 3671111
PETSc-cg:  Solving for p, Initial residual = 0.0181297, Final residual = 9.85458e-05, No Iterations 1369
linear solve p 92193843
time step continuity errors : sum local = 1.83988e-10, global = 4.48487e-23, cumulative = 3.4948e-23
PETSc-cg:  Solving for p, Initial residual = 0.0169186, Final residual = 9.9827e-05, No Iterations 1277
linear solve p 86005375
time step continuity errors : sum local = 1.75852e-10, global = 1.00948e-23, cumulative = 4.50428e-23
ExecutionTime = 3535.97 s  ClockTime = 3554 s

Time = 0.00035

Courant Number mean: 0.00443142 max: 0.0957
DILUPBiCGStab:  Solving for Ux, Initial residual = 0.0112966, Final residual = 9.11862e-06, No Iterations 5
DILUPBiCGStab:  Solving for Uy, Initial residual = 0.0181184, Final residual = 1.04503e-05, No Iterations 5
DILUPBiCGStab:  Solving for Uz, Initial residual = 0.0356025, Final residual = 4.07194e-05, No Iterations 5
linear solve U 3677355
PETSc-cg:  Solving for p, Initial residual = 0.0157712, Final residual = 9.952e-05, No Iterations 2903
linear solve p 195100276
time step continuity errors : sum local = 1.73775e-10, global = 2.9134e-23, cumulative = 7.41768e-23
PETSc-cg:  Solving for p, Initial residual = 0.0148988, Final residual = 9.98468e-05, No Iterations 2900
linear solve p 194913754
time step continuity errors : sum local = 1.74437e-10, global = 4.0244e-23, cumulative = 1.14421e-22
ExecutionTime = 3930.47 s  ClockTime = 3951 s

Time = 0.000375

Courant Number mean: 0.00457851 max: 0.095855
DILUPBiCGStab:  Solving for Ux, Initial residual = 0.0105439, Final residual = 8.06968e-06, No Iterations 5
DILUPBiCGStab:  Solving for Uy, Initial residual = 0.0167805, Final residual = 9.56972e-06, No Iterations 5
DILUPBiCGStab:  Solving for Uz, Initial residual = 0.0315628, Final residual = 2.37234e-05, No Iterations 5
linear solve U 3677264
PETSc-cg:  Solving for p, Initial residual = 0.0142988, Final residual = 9.9345e-05, No Iterations 1183
linear solve p 79690094
time step continuity errors : sum local = 1.78381e-10, global = -2.20366e-25, cumulative = 1.142e-22
PETSc-cg:  Solving for p, Initial residual = 0.0135469, Final residual = 9.94934e-05, No Iterations 1173
linear solve p 78995153
time step continuity errors : sum local = 1.75836e-10, global = 8.89374e-23, cumulative = 2.03138e-22
ExecutionTime = 4094.83 s  ClockTime = 4116 s

Time = 0.0004

Courant Number mean: 0.004719 max: 0.0959932
DILUPBiCGStab:  Solving for Ux, Initial residual = 0.0098908, Final residual = 7.24297e-06, No Iterations 5
DILUPBiCGStab:  Solving for Uy, Initial residual = 0.0156132, Final residual = 8.79214e-06, No Iterations 5
DILUPBiCGStab:  Solving for Uz, Initial residual = 0.029978, Final residual = 1.84672e-05, No Iterations 5
linear solve U 3678070
PETSc-cg:  Solving for p, Initial residual = 0.0128588, Final residual = 9.88568e-05, No Iterations 1190
linear solve p 80139674
time step continuity errors : sum local = 1.78097e-10, global = -1.24987e-22, cumulative = 7.81512e-23
PETSc-cg:  Solving for p, Initial residual = 0.0122567, Final residual = 9.74776e-05, No Iterations 1174
linear solve p 79069511
time step continuity errors : sum local = 1.71342e-10, global = 4.47537e-23, cumulative = 1.22905e-22
ExecutionTime = 4259.72 s  ClockTime = 4282 s

Time = 0.000425

Courant Number mean: 0.00485338 max: 0.0961176
DILUPBiCGStab:  Solving for Ux, Initial residual = 0.00931075, Final residual = 6.58462e-06, No Iterations 5
DILUPBiCGStab:  Solving for Uy, Initial residual = 0.0146052, Final residual = 8.15472e-06, No Iterations 5
DILUPBiCGStab:  Solving for Uz, Initial residual = 0.028145, Final residual = 1.89973e-05, No Iterations 5
linear solve U 3673428
PETSc-cg:  Solving for p, Initial residual = 0.0117049, Final residual = 9.94778e-05, No Iterations 1307
linear solve p 87980835
time step continuity errors : sum local = 1.80419e-10, global = -4.37928e-23, cumulative = 7.91122e-23
PETSc-cg:  Solving for p, Initial residual = 0.0111791, Final residual = 9.99855e-05, No Iterations 1273
linear solve p 85747154
time step continuity errors : sum local = 1.77187e-10, global = -9.12392e-23, cumulative = -1.2127e-23
ExecutionTime = 4439.06 s  ClockTime = 4462 s

Time = 0.00045

Courant Number mean: 0.00498241 max: 0.0962302
DILUPBiCGStab:  Solving for Ux, Initial residual = 0.00880041, Final residual = 6.05457e-06, No Iterations 5
DILUPBiCGStab:  Solving for Uy, Initial residual = 0.0137064, Final residual = 7.5872e-06, No Iterations 5
DILUPBiCGStab:  Solving for Uz, Initial residual = 0.0268818, Final residual = 1.82881e-05, No Iterations 5
linear solve U 3678036
PETSc-cg:  Solving for p, Initial residual = 0.0108854, Final residual = 9.98891e-05, No Iterations 1297
linear solve p 87318618
time step continuity errors : sum local = 1.82042e-10, global = 5.1925e-24, cumulative = -6.93446e-24
PETSc-cg:  Solving for p, Initial residual = 0.0104176, Final residual = 9.95952e-05, No Iterations 1218
linear solve p 82036457
time step continuity errors : sum local = 1.75808e-10, global = -5.57439e-23, cumulative = -6.26784e-23
ExecutionTime = 4614.03 s  ClockTime = 4638 s

Time = 0.000475

Courant Number mean: 0.00510644 max: 0.096333
DILUPBiCGStab:  Solving for Ux, Initial residual = 0.0083376, Final residual = 5.62711e-06, No Iterations 5
DILUPBiCGStab:  Solving for Uy, Initial residual = 0.0129216, Final residual = 7.10727e-06, No Iterations 5
DILUPBiCGStab:  Solving for Uz, Initial residual = 0.0254263, Final residual = 1.95719e-05, No Iterations 5
linear solve U 3673243
PETSc-cg:  Solving for p, Initial residual = 0.0101868, Final residual = 9.91113e-05, No Iterations 1312
linear solve p 88321824
time step continuity errors : sum local = 1.82258e-10, global = -4.45062e-23, cumulative = -1.07185e-22
PETSc-cg:  Solving for p, Initial residual = 0.00974848, Final residual = 9.9645e-05, No Iterations 1284
linear solve p 86480287
time step continuity errors : sum local = 1.77311e-10, global = -7.3351e-23, cumulative = -1.80536e-22
ExecutionTime = 4794.4 s  ClockTime = 4819 s

Time = 0.0005

Courant Number mean: 0.00522603 max: 0.0964271
DILUPBiCGStab:  Solving for Ux, Initial residual = 0.00792807, Final residual = 5.29099e-06, No Iterations 5
DILUPBiCGStab:  Solving for Uy, Initial residual = 0.0122057, Final residual = 6.67707e-06, No Iterations 5
DILUPBiCGStab:  Solving for Uz, Initial residual = 0.0242589, Final residual = 1.97399e-05, No Iterations 5
linear solve U 3683054
PETSc-cg:  Solving for p, Initial residual = 0.00957963, Final residual = 9.99065e-05, No Iterations 1292
linear solve p 86976555
time step continuity errors : sum local = 1.84939e-10, global = -1.06311e-22, cumulative = -2.86847e-22
PETSc-cg:  Solving for p, Initial residual = 0.00918672, Final residual = 9.9629e-05, No Iterations 1179
linear solve p 79394935
time step continuity errors : sum local = 1.76859e-10, global = -5.27715e-23, cumulative = -3.39619e-22
ExecutionTime = 4966.43 s  ClockTime = 4992 s

End

Finalizing PETSc
Finalising parallel run
================================================================================
