hash: b28090d970b8ee8b2b05346604d72680
/*---------------------------------------------------------------------------*\
| =========                 |                                                 |
| \\      /  F ield         | OpenFOAM: The Open Source CFD Toolbox           |
|  \\    /   O peration     | Version:  v2106                                 |
|   \\  /    A nd           | Website:  www.openfoam.com                      |
|    \\/     M anipulation  |                                                 |
\*---------------------------------------------------------------------------*/
Build  : f815a12bba-20210902 OPENFOAM=2106
Arch   : "LSB;label=32;scalar=64"
Exec   : icoFoam -parallel
Date   : Aug 06 2022
Time   : 09:14:38
Host   : nla-gpu2.ianm.kit.edu
PID    : 24738
I/O    : uncollated
Case   : /home/greole/data/code/ogl_labbook/lidDrivenCavity/single_node/mesh/100/matrix_solver/CG_NoPrecond_Ginkgo_HIP/mpiRank_gko/8/base
nProcs : 8
Hosts  :
(
    (nla-gpu2.ianm.kit.edu 8)
)
Pstream initialized with:
    floatTransfer      : 0
    nProcsSimpleSum    : 0
    commsType          : nonBlocking
    polling iterations : 0
trapFpe: Floating point exception trapping enabled (FOAM_SIGFPE).
fileModificationChecking : Monitoring run-time modified files using timeStampMaster (fileModificationSkew 5, maxFileModificationPolls 20)
allowSystemOperations : Allowing user-supplied system call operations

// * * * * * * * * * * * * * * * * * * * * * * * * * * * * * * * * * * * * * //
Create time

Create mesh for time = 0


PISO: Operating solver in PISO mode

Reading transportProperties

Reading field p

Reading field U

Reading/calculating face flux field phi


Starting time loop

Time = 0.0001

Courant Number mean: 0 max: 0
DILUPBiCGStab:  Solving for Ux, Initial residual = 1, Final residual = 3.41774e-06, No Iterations 5
DILUPBiCGStab:  Solving for Uy:  solution singularity
DILUPBiCGStab:  Solving for Uz:  solution singularity
linear solve U 72111
[OGL LOG][Proc: 0]global_index_init: 0.048 [ms]
[OGL LOG][Proc: 0]global_index_init: 0.002 [ms]
[OGL LOG][Proc: 0]init_host_sparsity_pattern: 661.864 [ms]
[OGL LOG][Proc: 0]update_host_matrix_data: 61.501 [ms]
[OGL LOG][Proc: 0]convert_coo_to_csr: 70.14 [ms]
[OGL LOG][lduLduBase.H:153] Initialising OGL
	Version:  e14864d
	branch: multi_gpu 
	Ginkgo version: 1.5.0(develop)
	MPI is GPU aware: 1)
	Forces host buffer based communication: 1
[OGL LOG][Proc: 0]gather_global_matrix: 0 [ms]
[OGL LOG][Proc: 0]generate_distributed_matrix: 49.559 [ms]
[OGL LOG][Proc: 0]init_precond: 0.096 [ms]
[OGL LOG][Proc: 0]generate_solver: 0.024 [ms]
[OGL LOG][Proc: 0]solve: 514.146 [ms]
[OGL LOG][Proc: 0]copy_x_back: 0.349 [ms]
[OGL LOG][lduLduBase.H:380] 
Statistics:
	Time per iteration: 646 [mu s]
	Time per iteration and DOF: 0.646000 [ns]
	Retrieve results bandwith 2.865000 [GByte/s]
nonehipGKOCG:  Solving for p, Initial residual = 1, Final residual = 9.67395e-05, No Iterations 795
linear solve p 2159038
time step continuity errors : sum local = 1.70909e-09, global = 1.90791e-22, cumulative = 1.90791e-22
[OGL LOG][Proc: 0]global_index_init: 0.031 [ms]
[OGL LOG][Proc: 0]global_index_init: 0.003 [ms]
[OGL LOG][Proc: 0]update_host_matrix_data: 9.801 [ms]
[OGL LOG][Proc: 0]gather_global_matrix: 0 [ms]
[OGL LOG][Proc: 0]generate_distributed_matrix: 6.039 [ms]
[OGL LOG][Proc: 0]init_precond: 0.048 [ms]
[OGL LOG][Proc: 0]generate_solver: 0.004 [ms]
[OGL LOG][Proc: 0]solve: 308.868 [ms]
[OGL LOG][Proc: 0]copy_x_back: 0.346 [ms]
[OGL LOG][lduLduBase.H:380] 
Statistics:
	Time per iteration: 382 [mu s]
	Time per iteration and DOF: 0.382000 [ns]
	Retrieve results bandwith 2.890000 [GByte/s]
nonehipGKOCG:  Solving for p, Initial residual = 0.559989, Final residual = 2.86954e-05, No Iterations 807
linear solve p 327675
time step continuity errors : sum local = 7.84976e-10, global = -3.69798e-22, cumulative = -1.79008e-22
ExecutionTime = 3.51 s  ClockTime = 4 s

Time = 0.0002

Courant Number mean: 0.00201333 max: 0.0540371
DILUPBiCGStab:  Solving for Ux, Initial residual = 0.216464, Final residual = 2.36892e-06, No Iterations 5
DILUPBiCGStab:  Solving for Uy, Initial residual = 0.309937, Final residual = 1.75831e-06, No Iterations 5
DILUPBiCGStab:  Solving for Uz, Initial residual = 0.981399, Final residual = 5.76038e-06, No Iterations 5
linear solve U 108393
[OGL LOG][Proc: 0]global_index_init: 0.013 [ms]
[OGL LOG][Proc: 0]global_index_init: 0.003 [ms]
[OGL LOG][Proc: 0]update_host_matrix_data: 7.568 [ms]
[OGL LOG][Proc: 0]gather_global_matrix: 0 [ms]
[OGL LOG][Proc: 0]generate_distributed_matrix: 3.299 [ms]
[OGL LOG][Proc: 0]init_precond: 0.048 [ms]
[OGL LOG][Proc: 0]generate_solver: 0.004 [ms]
[OGL LOG][Proc: 0]solve: 334.873 [ms]
[OGL LOG][Proc: 0]copy_x_back: 0.456 [ms]
[OGL LOG][lduLduBase.H:380] 
Statistics:
	Time per iteration: 435 [mu s]
	Time per iteration and DOF: 0.435000 [ns]
	Retrieve results bandwith 2.192000 [GByte/s]
nonehipGKOCG:  Solving for p, Initial residual = 0.381662, Final residual = 9.90189e-05, No Iterations 769
linear solve p 348194
time step continuity errors : sum local = 2.5895e-09, global = -2.21124e-22, cumulative = -4.00132e-22
[OGL LOG][Proc: 0]global_index_init: 0.009 [ms]
[OGL LOG][Proc: 0]global_index_init: 0.002 [ms]
[OGL LOG][Proc: 0]update_host_matrix_data: 7.393 [ms]
[OGL LOG][Proc: 0]gather_global_matrix: 0 [ms]
[OGL LOG][Proc: 0]generate_distributed_matrix: 4.728 [ms]
[OGL LOG][Proc: 0]init_precond: 0.043 [ms]
[OGL LOG][Proc: 0]generate_solver: 0.004 [ms]
[OGL LOG][Proc: 0]solve: 298.046 [ms]
[OGL LOG][Proc: 0]copy_x_back: 0.34 [ms]
[OGL LOG][lduLduBase.H:380] 
Statistics:
	Time per iteration: 381 [mu s]
	Time per iteration and DOF: 0.381000 [ns]
	Retrieve results bandwith 2.941000 [GByte/s]
nonehipGKOCG:  Solving for p, Initial residual = 0.284775, Final residual = 2.80223e-05, No Iterations 781
linear solve p 312205
time step continuity errors : sum local = 7.67845e-10, global = -6.23412e-22, cumulative = -1.02354e-21
ExecutionTime = 4.36 s  ClockTime = 5 s

Time = 0.0003

Courant Number mean: 0.00317979 max: 0.0721774
DILUPBiCGStab:  Solving for Ux, Initial residual = 0.0963257, Final residual = 9.73984e-07, No Iterations 5
DILUPBiCGStab:  Solving for Uy, Initial residual = 0.140691, Final residual = 5.64828e-07, No Iterations 5
DILUPBiCGStab:  Solving for Uz, Initial residual = 0.205559, Final residual = 1.28793e-06, No Iterations 5
linear solve U 104664
[OGL LOG][Proc: 0]global_index_init: 0.028 [ms]
[OGL LOG][Proc: 0]global_index_init: 0.003 [ms]
[OGL LOG][Proc: 0]update_host_matrix_data: 7.418 [ms]
[OGL LOG][Proc: 0]gather_global_matrix: 0 [ms]
[OGL LOG][Proc: 0]generate_distributed_matrix: 2.861 [ms]
[OGL LOG][Proc: 0]init_precond: 0.043 [ms]
[OGL LOG][Proc: 0]generate_solver: 0.004 [ms]
[OGL LOG][Proc: 0]solve: 284.847 [ms]
[OGL LOG][Proc: 0]copy_x_back: 0.333 [ms]
[OGL LOG][lduLduBase.H:380] 
Statistics:
	Time per iteration: 382 [mu s]
	Time per iteration and DOF: 0.382000 [ns]
	Retrieve results bandwith 3.003000 [GByte/s]
nonehipGKOCG:  Solving for p, Initial residual = 0.128518, Final residual = 9.80103e-05, No Iterations 745
linear solve p 297045
time step continuity errors : sum local = 2.30921e-09, global = 3.41432e-23, cumulative = -9.89401e-22
[OGL LOG][Proc: 0]global_index_init: 0.042 [ms]
[OGL LOG][Proc: 0]global_index_init: 0.003 [ms]
[OGL LOG][Proc: 0]update_host_matrix_data: 7.357 [ms]
[OGL LOG][Proc: 0]gather_global_matrix: 0 [ms]
[OGL LOG][Proc: 0]generate_distributed_matrix: 3.45 [ms]
[OGL LOG][Proc: 0]init_precond: 0.041 [ms]
[OGL LOG][Proc: 0]generate_solver: 0.004 [ms]
[OGL LOG][Proc: 0]solve: 286.324 [ms]
[OGL LOG][Proc: 0]copy_x_back: 0.342 [ms]
[OGL LOG][lduLduBase.H:380] 
Statistics:
	Time per iteration: 379 [mu s]
	Time per iteration and DOF: 0.379000 [ns]
	Retrieve results bandwith 2.923000 [GByte/s]
nonehipGKOCG:  Solving for p, Initial residual = 0.0995698, Final residual = 6.15733e-05, No Iterations 755
linear solve p 299034
time step continuity errors : sum local = 1.4696e-09, global = 1.81901e-22, cumulative = -8.075e-22
ExecutionTime = 5.12 s  ClockTime = 6 s

Time = 0.0004

Courant Number mean: 0.00397985 max: 0.0793326
DILUPBiCGStab:  Solving for Ux, Initial residual = 0.0593651, Final residual = 4.72107e-07, No Iterations 5
DILUPBiCGStab:  Solving for Uy, Initial residual = 0.0868085, Final residual = 2.90806e-07, No Iterations 5
DILUPBiCGStab:  Solving for Uz, Initial residual = 0.127111, Final residual = 6.28916e-07, No Iterations 5
linear solve U 118753
[OGL LOG][Proc: 0]global_index_init: 0.037 [ms]
[OGL LOG][Proc: 0]global_index_init: 0.004 [ms]
[OGL LOG][Proc: 0]update_host_matrix_data: 7.545 [ms]
[OGL LOG][Proc: 0]gather_global_matrix: 0 [ms]
[OGL LOG][Proc: 0]generate_distributed_matrix: 3.184 [ms]
[OGL LOG][Proc: 0]init_precond: 0.045 [ms]
[OGL LOG][Proc: 0]generate_solver: 0.004 [ms]
[OGL LOG][Proc: 0]solve: 289.772 [ms]
[OGL LOG][Proc: 0]copy_x_back: 0.349 [ms]
[OGL LOG][lduLduBase.H:380] 
Statistics:
	Time per iteration: 385 [mu s]
	Time per iteration and DOF: 0.385000 [ns]
	Retrieve results bandwith 2.865000 [GByte/s]
nonehipGKOCG:  Solving for p, Initial residual = 0.0642163, Final residual = 5.29033e-05, No Iterations 751
linear solve p 309936
time step continuity errors : sum local = 1.22641e-09, global = -1.18564e-22, cumulative = -9.26065e-22
[OGL LOG][Proc: 0]global_index_init: 0.033 [ms]
[OGL LOG][Proc: 0]global_index_init: 0.002 [ms]
[OGL LOG][Proc: 0]update_host_matrix_data: 7.293 [ms]
[OGL LOG][Proc: 0]gather_global_matrix: 0 [ms]
[OGL LOG][Proc: 0]generate_distributed_matrix: 2.931 [ms]
[OGL LOG][Proc: 0]init_precond: 0.045 [ms]
[OGL LOG][Proc: 0]generate_solver: 0.004 [ms]
[OGL LOG][Proc: 0]solve: 286.939 [ms]
[OGL LOG][Proc: 0]copy_x_back: 0.344 [ms]
[OGL LOG][lduLduBase.H:380] 
Statistics:
	Time per iteration: 382 [mu s]
	Time per iteration and DOF: 0.382000 [ns]
	Retrieve results bandwith 2.906000 [GByte/s]
nonehipGKOCG:  Solving for p, Initial residual = 0.049672, Final residual = 4.34856e-05, No Iterations 751
linear solve p 299261
time step continuity errors : sum local = 1.02375e-09, global = -5.63626e-22, cumulative = -1.48969e-21
ExecutionTime = 5.91 s  ClockTime = 7 s

Time = 0.0005

Courant Number mean: 0.0046013 max: 0.0828851
DILUPBiCGStab:  Solving for Ux, Initial residual = 0.04286, Final residual = 3.10037e-07, No Iterations 5
DILUPBiCGStab:  Solving for Uy, Initial residual = 0.061865, Final residual = 1.66963e-07, No Iterations 5
DILUPBiCGStab:  Solving for Uz, Initial residual = 0.0972875, Final residual = 4.248e-07, No Iterations 5
linear solve U 108832
[OGL LOG][Proc: 0]global_index_init: 0.017 [ms]
[OGL LOG][Proc: 0]global_index_init: 0.002 [ms]
[OGL LOG][Proc: 0]update_host_matrix_data: 7.461 [ms]
[OGL LOG][Proc: 0]gather_global_matrix: 0 [ms]
[OGL LOG][Proc: 0]generate_distributed_matrix: 3.316 [ms]
[OGL LOG][Proc: 0]init_precond: 0.042 [ms]
[OGL LOG][Proc: 0]generate_solver: 0.004 [ms]
[OGL LOG][Proc: 0]solve: 286.93 [ms]
[OGL LOG][Proc: 0]copy_x_back: 0.448 [ms]
[OGL LOG][lduLduBase.H:380] 
Statistics:
	Time per iteration: 397 [mu s]
	Time per iteration and DOF: 0.397000 [ns]
	Retrieve results bandwith 2.232000 [GByte/s]
nonehipGKOCG:  Solving for p, Initial residual = 0.0388773, Final residual = 8.01507e-05, No Iterations 721
linear solve p 300280
time step continuity errors : sum local = 1.88511e-09, global = -4.98437e-22, cumulative = -1.98813e-21
[OGL LOG][Proc: 0]global_index_init: 0.015 [ms]
[OGL LOG][Proc: 0]global_index_init: 0.002 [ms]
[OGL LOG][Proc: 0]update_host_matrix_data: 7.314 [ms]
[OGL LOG][Proc: 0]gather_global_matrix: 0 [ms]
[OGL LOG][Proc: 0]generate_distributed_matrix: 3.047 [ms]
[OGL LOG][Proc: 0]init_precond: 0.044 [ms]
[OGL LOG][Proc: 0]generate_solver: 0.003 [ms]
[OGL LOG][Proc: 0]solve: 274.861 [ms]
[OGL LOG][Proc: 0]copy_x_back: 0.34 [ms]
[OGL LOG][lduLduBase.H:380] 
Statistics:
	Time per iteration: 377 [mu s]
	Time per iteration and DOF: 0.377000 [ns]
	Retrieve results bandwith 2.941000 [GByte/s]
nonehipGKOCG:  Solving for p, Initial residual = 0.03051, Final residual = 5.18813e-05, No Iterations 729
linear solve p 287297
time step continuity errors : sum local = 1.22895e-09, global = 5.5528e-22, cumulative = -1.43285e-21
ExecutionTime = 6.67 s  ClockTime = 7 s

Time = 0.0006

Courant Number mean: 0.00511864 max: 0.0850108
DILUPBiCGStab:  Solving for Ux, Initial residual = 0.0336738, Final residual = 2.21837e-07, No Iterations 5
DILUPBiCGStab:  Solving for Uy, Initial residual = 0.0480392, Final residual = 1.1549e-07, No Iterations 5
DILUPBiCGStab:  Solving for Uz, Initial residual = 0.0794426, Final residual = 3.32893e-07, No Iterations 5
linear solve U 100048
[OGL LOG][Proc: 0]global_index_init: 0.013 [ms]
[OGL LOG][Proc: 0]global_index_init: 0.003 [ms]
[OGL LOG][Proc: 0]update_host_matrix_data: 7.491 [ms]
[OGL LOG][Proc: 0]gather_global_matrix: 0 [ms]
[OGL LOG][Proc: 0]generate_distributed_matrix: 3.35 [ms]
[OGL LOG][Proc: 0]init_precond: 0.041 [ms]
[OGL LOG][Proc: 0]generate_solver: 0.003 [ms]
[OGL LOG][Proc: 0]solve: 290.859 [ms]
[OGL LOG][Proc: 0]copy_x_back: 0.345 [ms]
[OGL LOG][lduLduBase.H:380] 
Statistics:
	Time per iteration: 400 [mu s]
	Time per iteration and DOF: 0.400000 [ns]
	Retrieve results bandwith 2.898000 [GByte/s]
nonehipGKOCG:  Solving for p, Initial residual = 0.0268016, Final residual = 5.44073e-05, No Iterations 726
linear solve p 303638
time step continuity errors : sum local = 1.29056e-09, global = -4.56318e-22, cumulative = -1.88917e-21
[OGL LOG][Proc: 0]global_index_init: 0.037 [ms]
[OGL LOG][Proc: 0]global_index_init: 0.002 [ms]
[OGL LOG][Proc: 0]update_host_matrix_data: 7.424 [ms]
[OGL LOG][Proc: 0]gather_global_matrix: 0 [ms]
[OGL LOG][Proc: 0]generate_distributed_matrix: 2.902 [ms]
[OGL LOG][Proc: 0]init_precond: 0.042 [ms]
[OGL LOG][Proc: 0]generate_solver: 0.004 [ms]
[OGL LOG][Proc: 0]solve: 279.163 [ms]
[OGL LOG][Proc: 0]copy_x_back: 0.373 [ms]
[OGL LOG][lduLduBase.H:380] 
Statistics:
	Time per iteration: 384 [mu s]
	Time per iteration and DOF: 0.384000 [ns]
	Retrieve results bandwith 2.680000 [GByte/s]
nonehipGKOCG:  Solving for p, Initial residual = 0.0212354, Final residual = 4.45303e-05, No Iterations 726
linear solve p 291538
time step continuity errors : sum local = 1.06211e-09, global = -1.30857e-22, cumulative = -2.02002e-21
ExecutionTime = 7.43 s  ClockTime = 8 s

Time = 0.0007

Courant Number mean: 0.00556497 max: 0.086455
DILUPBiCGStab:  Solving for Ux, Initial residual = 0.0277684, Final residual = 1.62599e-07, No Iterations 5
DILUPBiCGStab:  Solving for Uy, Initial residual = 0.0392332, Final residual = 8.88388e-08, No Iterations 5
DILUPBiCGStab:  Solving for Uz, Initial residual = 0.0674759, Final residual = 2.69885e-07, No Iterations 5
linear solve U 105898
[OGL LOG][Proc: 0]global_index_init: 0.041 [ms]
[OGL LOG][Proc: 0]global_index_init: 0.003 [ms]
[OGL LOG][Proc: 0]update_host_matrix_data: 7.364 [ms]
[OGL LOG][Proc: 0]gather_global_matrix: 0 [ms]
[OGL LOG][Proc: 0]generate_distributed_matrix: 4.795 [ms]
[OGL LOG][Proc: 0]init_precond: 0.044 [ms]
[OGL LOG][Proc: 0]generate_solver: 0.004 [ms]
[OGL LOG][Proc: 0]solve: 307.153 [ms]
[OGL LOG][Proc: 0]copy_x_back: 0.439 [ms]
[OGL LOG][lduLduBase.H:380] 
Statistics:
	Time per iteration: 423 [mu s]
	Time per iteration and DOF: 0.423000 [ns]
	Retrieve results bandwith 2.277000 [GByte/s]
nonehipGKOCG:  Solving for p, Initial residual = 0.0206873, Final residual = 4.30127e-05, No Iterations 726
linear solve p 321801
time step continuity errors : sum local = 1.02805e-09, global = 2.25362e-22, cumulative = -1.79466e-21
[OGL LOG][Proc: 0]global_index_init: 0.016 [ms]
[OGL LOG][Proc: 0]global_index_init: 0.003 [ms]
[OGL LOG][Proc: 0]update_host_matrix_data: 7.4 [ms]
[OGL LOG][Proc: 0]gather_global_matrix: 0 [ms]
[OGL LOG][Proc: 0]generate_distributed_matrix: 2.98 [ms]
[OGL LOG][Proc: 0]init_precond: 0.042 [ms]
[OGL LOG][Proc: 0]generate_solver: 0.004 [ms]
[OGL LOG][Proc: 0]solve: 266.82 [ms]
[OGL LOG][Proc: 0]copy_x_back: 0.34 [ms]
[OGL LOG][lduLduBase.H:380] 
Statistics:
	Time per iteration: 382 [mu s]
	Time per iteration and DOF: 0.382000 [ns]
	Retrieve results bandwith 2.941000 [GByte/s]
nonehipGKOCG:  Solving for p, Initial residual = 0.0164438, Final residual = 7.735e-05, No Iterations 697
linear solve p 279264
time step continuity errors : sum local = 1.85577e-09, global = -1.02525e-22, cumulative = -1.89719e-21
ExecutionTime = 8.2 s  ClockTime = 9 s

Time = 0.0008

Courant Number mean: 0.0059623 max: 0.0875193
DILUPBiCGStab:  Solving for Ux, Initial residual = 0.0236262, Final residual = 1.30759e-07, No Iterations 5
DILUPBiCGStab:  Solving for Uy, Initial residual = 0.0331322, Final residual = 7.13656e-08, No Iterations 5
DILUPBiCGStab:  Solving for Uz, Initial residual = 0.0585643, Final residual = 2.18122e-07, No Iterations 5
linear solve U 101025
[OGL LOG][Proc: 0]global_index_init: 0.015 [ms]
[OGL LOG][Proc: 0]global_index_init: 0.002 [ms]
[OGL LOG][Proc: 0]update_host_matrix_data: 7.381 [ms]
[OGL LOG][Proc: 0]gather_global_matrix: 0 [ms]
[OGL LOG][Proc: 0]generate_distributed_matrix: 2.917 [ms]
[OGL LOG][Proc: 0]init_precond: 0.043 [ms]
[OGL LOG][Proc: 0]generate_solver: 0.004 [ms]
[OGL LOG][Proc: 0]solve: 268.19 [ms]
[OGL LOG][Proc: 0]copy_x_back: 0.336 [ms]
[OGL LOG][lduLduBase.H:380] 
Statistics:
	Time per iteration: 381 [mu s]
	Time per iteration and DOF: 0.381000 [ns]
	Retrieve results bandwith 2.976000 [GByte/s]
nonehipGKOCG:  Solving for p, Initial residual = 0.016616, Final residual = 6.66068e-05, No Iterations 703
linear solve p 280574
time step continuity errors : sum local = 1.60152e-09, global = 1.43244e-22, cumulative = -1.75394e-21
[OGL LOG][Proc: 0]global_index_init: 0.018 [ms]
[OGL LOG][Proc: 0]global_index_init: 0.003 [ms]
[OGL LOG][Proc: 0]update_host_matrix_data: 7.296 [ms]
[OGL LOG][Proc: 0]gather_global_matrix: 0 [ms]
[OGL LOG][Proc: 0]generate_distributed_matrix: 2.919 [ms]
[OGL LOG][Proc: 0]init_precond: 0.044 [ms]
[OGL LOG][Proc: 0]generate_solver: 0.003 [ms]
[OGL LOG][Proc: 0]solve: 268.091 [ms]
[OGL LOG][Proc: 0]copy_x_back: 0.346 [ms]
[OGL LOG][lduLduBase.H:380] 
Statistics:
	Time per iteration: 382 [mu s]
	Time per iteration and DOF: 0.382000 [ns]
	Retrieve results bandwith 2.890000 [GByte/s]
nonehipGKOCG:  Solving for p, Initial residual = 0.0133043, Final residual = 5.30889e-05, No Iterations 701
linear solve p 280380
time step continuity errors : sum local = 1.2804e-09, global = -2.0688e-22, cumulative = -1.96082e-21
ExecutionTime = 8.91 s  ClockTime = 10 s

Time = 0.0009

Courant Number mean: 0.00631847 max: 0.0883467
DILUPBiCGStab:  Solving for Ux, Initial residual = 0.0205619, Final residual = 1.09913e-07, No Iterations 5
DILUPBiCGStab:  Solving for Uy, Initial residual = 0.0286477, Final residual = 5.97026e-08, No Iterations 5
DILUPBiCGStab:  Solving for Uz, Initial residual = 0.0517446, Final residual = 1.78206e-07, No Iterations 5
linear solve U 101579
[OGL LOG][Proc: 0]global_index_init: 0.021 [ms]
[OGL LOG][Proc: 0]global_index_init: 0.003 [ms]
[OGL LOG][Proc: 0]update_host_matrix_data: 7.425 [ms]
[OGL LOG][Proc: 0]gather_global_matrix: 0 [ms]
[OGL LOG][Proc: 0]generate_distributed_matrix: 2.887 [ms]
[OGL LOG][Proc: 0]init_precond: 0.042 [ms]
[OGL LOG][Proc: 0]generate_solver: 0.003 [ms]
[OGL LOG][Proc: 0]solve: 276.805 [ms]
[OGL LOG][Proc: 0]copy_x_back: 0.342 [ms]
[OGL LOG][lduLduBase.H:380] 
Statistics:
	Time per iteration: 394 [mu s]
	Time per iteration and DOF: 0.394000 [ns]
	Retrieve results bandwith 2.923000 [GByte/s]
nonehipGKOCG:  Solving for p, Initial residual = 0.0138358, Final residual = 5.22182e-05, No Iterations 701
linear solve p 288997
time step continuity errors : sum local = 1.26182e-09, global = -8.76618e-22, cumulative = -2.83744e-21
[OGL LOG][Proc: 0]global_index_init: 0.078 [ms]
[OGL LOG][Proc: 0]global_index_init: 0.002 [ms]
[OGL LOG][Proc: 0]update_host_matrix_data: 7.4 [ms]
[OGL LOG][Proc: 0]gather_global_matrix: 0 [ms]
[OGL LOG][Proc: 0]generate_distributed_matrix: 3.072 [ms]
[OGL LOG][Proc: 0]init_precond: 0.043 [ms]
[OGL LOG][Proc: 0]generate_solver: 0.004 [ms]
[OGL LOG][Proc: 0]solve: 295.045 [ms]
[OGL LOG][Proc: 0]copy_x_back: 0.54 [ms]
[OGL LOG][lduLduBase.H:380] 
Statistics:
	Time per iteration: 420 [mu s]
	Time per iteration and DOF: 0.420000 [ns]
	Retrieve results bandwith 1.851000 [GByte/s]
nonehipGKOCG:  Solving for p, Initial residual = 0.0111282, Final residual = 3.94247e-05, No Iterations 701
linear solve p 308086
time step continuity errors : sum local = 9.54984e-10, global = 8.67479e-22, cumulative = -1.96996e-21
ExecutionTime = 9.69 s  ClockTime = 10 s

Time = 0.001

Courant Number mean: 0.00664438 max: 0.0890141
DILUPBiCGStab:  Solving for Ux, Initial residual = 0.0181855, Final residual = 9.44164e-08, No Iterations 5
DILUPBiCGStab:  Solving for Uy, Initial residual = 0.0252108, Final residual = 5.13914e-08, No Iterations 5
DILUPBiCGStab:  Solving for Uz, Initial residual = 0.0463183, Final residual = 1.46485e-07, No Iterations 5
linear solve U 108306
[OGL LOG][Proc: 0]global_index_init: 0.018 [ms]
[OGL LOG][Proc: 0]global_index_init: 0.003 [ms]
[OGL LOG][Proc: 0]update_host_matrix_data: 7.323 [ms]
[OGL LOG][Proc: 0]gather_global_matrix: 0 [ms]
[OGL LOG][Proc: 0]generate_distributed_matrix: 2.948 [ms]
[OGL LOG][Proc: 0]init_precond: 0.045 [ms]
[OGL LOG][Proc: 0]generate_solver: 0.004 [ms]
[OGL LOG][Proc: 0]solve: 265.683 [ms]
[OGL LOG][Proc: 0]copy_x_back: 0.341 [ms]
[OGL LOG][lduLduBase.H:380] 
Statistics:
	Time per iteration: 379 [mu s]
	Time per iteration and DOF: 0.379000 [ns]
	Retrieve results bandwith 2.932000 [GByte/s]
nonehipGKOCG:  Solving for p, Initial residual = 0.0117526, Final residual = 4.27727e-05, No Iterations 701
linear solve p 277959
time step continuity errors : sum local = 1.03782e-09, global = -1.57439e-21, cumulative = -3.54435e-21
[OGL LOG][Proc: 0]global_index_init: 0.022 [ms]
[OGL LOG][Proc: 0]global_index_init: 0.002 [ms]
[OGL LOG][Proc: 0]update_host_matrix_data: 7.489 [ms]
[OGL LOG][Proc: 0]gather_global_matrix: 0 [ms]
[OGL LOG][Proc: 0]generate_distributed_matrix: 2.797 [ms]
[OGL LOG][Proc: 0]init_precond: 0.043 [ms]
[OGL LOG][Proc: 0]generate_solver: 0.004 [ms]
[OGL LOG][Proc: 0]solve: 269.326 [ms]
[OGL LOG][Proc: 0]copy_x_back: 0.342 [ms]
[OGL LOG][lduLduBase.H:380] 
Statistics:
	Time per iteration: 384 [mu s]
	Time per iteration and DOF: 0.384000 [ns]
	Retrieve results bandwith 2.923000 [GByte/s]
nonehipGKOCG:  Solving for p, Initial residual = 0.00949179, Final residual = 3.256e-05, No Iterations 701
linear solve p 281413
time step continuity errors : sum local = 7.9161e-10, global = 6.5582e-22, cumulative = -2.88853e-21
ExecutionTime = 10.4 s  ClockTime = 11 s

Time = 0.0011

Courant Number mean: 0.00694533 max: 0.0895673
DILUPBiCGStab:  Solving for Ux, Initial residual = 0.0162987, Final residual = 8.23168e-08, No Iterations 5
DILUPBiCGStab:  Solving for Uy, Initial residual = 0.0224922, Final residual = 4.51577e-08, No Iterations 5
DILUPBiCGStab:  Solving for Uz, Initial residual = 0.0418831, Final residual = 1.21168e-07, No Iterations 5
linear solve U 100942
[OGL LOG][Proc: 0]global_index_init: 0.016 [ms]
[OGL LOG][Proc: 0]global_index_init: 0.002 [ms]
[OGL LOG][Proc: 0]update_host_matrix_data: 7.486 [ms]
[OGL LOG][Proc: 0]gather_global_matrix: 0 [ms]
[OGL LOG][Proc: 0]generate_distributed_matrix: 4.857 [ms]
[OGL LOG][Proc: 0]init_precond: 0.039 [ms]
[OGL LOG][Proc: 0]generate_solver: 0.004 [ms]
[OGL LOG][Proc: 0]solve: 266.99 [ms]
[OGL LOG][Proc: 0]copy_x_back: 0.347 [ms]
[OGL LOG][lduLduBase.H:380] 
Statistics:
	Time per iteration: 380 [mu s]
	Time per iteration and DOF: 0.380000 [ns]
	Retrieve results bandwith 2.881000 [GByte/s]
nonehipGKOCG:  Solving for p, Initial residual = 0.0101645, Final residual = 3.58566e-05, No Iterations 701
linear solve p 281258
time step continuity errors : sum local = 8.73058e-10, global = 9.50092e-22, cumulative = -1.93844e-21
[OGL LOG][Proc: 0]global_index_init: 0.016 [ms]
[OGL LOG][Proc: 0]global_index_init: 0.003 [ms]
[OGL LOG][Proc: 0]update_host_matrix_data: 7.423 [ms]
[OGL LOG][Proc: 0]gather_global_matrix: 0 [ms]
[OGL LOG][Proc: 0]generate_distributed_matrix: 2.97 [ms]
[OGL LOG][Proc: 0]init_precond: 0.045 [ms]
[OGL LOG][Proc: 0]generate_solver: 0.004 [ms]
[OGL LOG][Proc: 0]solve: 255.932 [ms]
[OGL LOG][Proc: 0]copy_x_back: 0.351 [ms]
[OGL LOG][lduLduBase.H:380] 
Statistics:
	Time per iteration: 380 [mu s]
	Time per iteration and DOF: 0.380000 [ns]
	Retrieve results bandwith 2.849000 [GByte/s]
nonehipGKOCG:  Solving for p, Initial residual = 0.00823198, Final residual = 9.82085e-05, No Iterations 673
linear solve p 268178
time step continuity errors : sum local = 2.39562e-09, global = -6.17198e-22, cumulative = -2.55564e-21
ExecutionTime = 11.11 s  ClockTime = 12 s

Time = 0.0012

Courant Number mean: 0.00722379 max: 0.0900356
DILUPBiCGStab:  Solving for Ux, Initial residual = 0.0147485, Final residual = 7.26081e-08, No Iterations 5
DILUPBiCGStab:  Solving for Uy, Initial residual = 0.0202882, Final residual = 4.02677e-08, No Iterations 5
DILUPBiCGStab:  Solving for Uz, Initial residual = 0.0381768, Final residual = 1.01333e-07, No Iterations 5
linear solve U 100661
[OGL LOG][Proc: 0]global_index_init: 0.009 [ms]
[OGL LOG][Proc: 0]global_index_init: 0.003 [ms]
[OGL LOG][Proc: 0]update_host_matrix_data: 7.452 [ms]
[OGL LOG][Proc: 0]gather_global_matrix: 0 [ms]
[OGL LOG][Proc: 0]generate_distributed_matrix: 3.451 [ms]
[OGL LOG][Proc: 0]init_precond: 0.044 [ms]
[OGL LOG][Proc: 0]generate_solver: 0.004 [ms]
[OGL LOG][Proc: 0]solve: 256.329 [ms]
[OGL LOG][Proc: 0]copy_x_back: 0.338 [ms]
[OGL LOG][lduLduBase.H:380] 
Statistics:
	Time per iteration: 378 [mu s]
	Time per iteration and DOF: 0.378000 [ns]
	Retrieve results bandwith 2.958000 [GByte/s]
nonehipGKOCG:  Solving for p, Initial residual = 0.00901458, Final residual = 9.2246e-05, No Iterations 677
linear solve p 269030
time step continuity errors : sum local = 2.25319e-09, global = 6.64121e-22, cumulative = -1.89152e-21
[OGL LOG][Proc: 0]global_index_init: 0.111 [ms]
[OGL LOG][Proc: 0]global_index_init: 0.002 [ms]
[OGL LOG][Proc: 0]update_host_matrix_data: 7.126 [ms]
[OGL LOG][Proc: 0]gather_global_matrix: 0 [ms]
[OGL LOG][Proc: 0]generate_distributed_matrix: 3.027 [ms]
[OGL LOG][Proc: 0]init_precond: 0.047 [ms]
[OGL LOG][Proc: 0]generate_solver: 0.004 [ms]
[OGL LOG][Proc: 0]solve: 261.162 [ms]
[OGL LOG][Proc: 0]copy_x_back: 0.34 [ms]
[OGL LOG][lduLduBase.H:380] 
Statistics:
	Time per iteration: 386 [mu s]
	Time per iteration and DOF: 0.386000 [ns]
	Retrieve results bandwith 2.941000 [GByte/s]
nonehipGKOCG:  Solving for p, Initial residual = 0.00733717, Final residual = 7.54561e-05, No Iterations 676
linear solve p 274688
time step continuity errors : sum local = 1.84573e-09, global = -1.26346e-21, cumulative = -3.15497e-21
ExecutionTime = 11.81 s  ClockTime = 13 s

Time = 0.0013

Courant Number mean: 0.00748301 max: 0.0904387
DILUPBiCGStab:  Solving for Ux, Initial residual = 0.0134671, Final residual = 6.47303e-08, No Iterations 5
DILUPBiCGStab:  Solving for Uy, Initial residual = 0.0184652, Final residual = 3.63065e-08, No Iterations 5
DILUPBiCGStab:  Solving for Uz, Initial residual = 0.0350483, Final residual = 8.60669e-08, No Iterations 5
linear solve U 99811
[OGL LOG][Proc: 0]global_index_init: 0.025 [ms]
[OGL LOG][Proc: 0]global_index_init: 0.003 [ms]
[OGL LOG][Proc: 0]update_host_matrix_data: 7.343 [ms]
[OGL LOG][Proc: 0]gather_global_matrix: 0 [ms]
[OGL LOG][Proc: 0]generate_distributed_matrix: 2.821 [ms]
[OGL LOG][Proc: 0]init_precond: 0.044 [ms]
[OGL LOG][Proc: 0]generate_solver: 0.004 [ms]
[OGL LOG][Proc: 0]solve: 282.152 [ms]
[OGL LOG][Proc: 0]copy_x_back: 0.36 [ms]
[OGL LOG][lduLduBase.H:380] 
Statistics:
	Time per iteration: 417 [mu s]
	Time per iteration and DOF: 0.417000 [ns]
	Retrieve results bandwith 2.777000 [GByte/s]
nonehipGKOCG:  Solving for p, Initial residual = 0.00804855, Final residual = 8.92775e-05, No Iterations 676
linear solve p 294233
time step continuity errors : sum local = 2.18642e-09, global = -1.92678e-21, cumulative = -5.08176e-21
[OGL LOG][Proc: 0]global_index_init: 0.036 [ms]
[OGL LOG][Proc: 0]global_index_init: 0.002 [ms]
[OGL LOG][Proc: 0]update_host_matrix_data: 7.316 [ms]
[OGL LOG][Proc: 0]gather_global_matrix: 0 [ms]
[OGL LOG][Proc: 0]generate_distributed_matrix: 4.568 [ms]
[OGL LOG][Proc: 0]init_precond: 0.044 [ms]
[OGL LOG][Proc: 0]generate_solver: 0.004 [ms]
[OGL LOG][Proc: 0]solve: 273.675 [ms]
[OGL LOG][Proc: 0]copy_x_back: 0.551 [ms]
[OGL LOG][lduLduBase.H:380] 
Statistics:
	Time per iteration: 404 [mu s]
	Time per iteration and DOF: 0.404000 [ns]
	Retrieve results bandwith 1.814000 [GByte/s]
nonehipGKOCG:  Solving for p, Initial residual = 0.00657198, Final residual = 6.13072e-05, No Iterations 676
linear solve p 287953
time step continuity errors : sum local = 1.50331e-09, global = 1.11021e-22, cumulative = -4.97074e-21
ExecutionTime = 12.55 s  ClockTime = 13 s

Time = 0.0014

Courant Number mean: 0.00772783 max: 0.0907903
DILUPBiCGStab:  Solving for Ux, Initial residual = 0.0123794, Final residual = 5.82133e-08, No Iterations 5
DILUPBiCGStab:  Solving for Uy, Initial residual = 0.0169325, Final residual = 3.3015e-08, No Iterations 5
DILUPBiCGStab:  Solving for Uz, Initial residual = 0.0323889, Final residual = 7.44219e-08, No Iterations 5
linear solve U 99412
[OGL LOG][Proc: 0]global_index_init: 0.018 [ms]
[OGL LOG][Proc: 0]global_index_init: 0.002 [ms]
[OGL LOG][Proc: 0]update_host_matrix_data: 7.419 [ms]
[OGL LOG][Proc: 0]gather_global_matrix: 0 [ms]
[OGL LOG][Proc: 0]generate_distributed_matrix: 2.902 [ms]
[OGL LOG][Proc: 0]init_precond: 0.043 [ms]
[OGL LOG][Proc: 0]generate_solver: 0.004 [ms]
[OGL LOG][Proc: 0]solve: 258.082 [ms]
[OGL LOG][Proc: 0]copy_x_back: 0.354 [ms]
[OGL LOG][lduLduBase.H:380] 
Statistics:
	Time per iteration: 381 [mu s]
	Time per iteration and DOF: 0.381000 [ns]
	Retrieve results bandwith 2.824000 [GByte/s]
nonehipGKOCG:  Solving for p, Initial residual = 0.00719162, Final residual = 8.1642e-05, No Iterations 676
linear solve p 270335
time step continuity errors : sum local = 2.00392e-09, global = 1.97445e-22, cumulative = -4.77329e-21
[OGL LOG][Proc: 0]global_index_init: 0.02 [ms]
[OGL LOG][Proc: 0]global_index_init: 0.002 [ms]
[OGL LOG][Proc: 0]update_host_matrix_data: 7.365 [ms]
[OGL LOG][Proc: 0]gather_global_matrix: 0 [ms]
[OGL LOG][Proc: 0]generate_distributed_matrix: 2.99 [ms]
[OGL LOG][Proc: 0]init_precond: 0.045 [ms]
[OGL LOG][Proc: 0]generate_solver: 0.005 [ms]
[OGL LOG][Proc: 0]solve: 255.396 [ms]
[OGL LOG][Proc: 0]copy_x_back: 0.356 [ms]
[OGL LOG][lduLduBase.H:380] 
Statistics:
	Time per iteration: 377 [mu s]
	Time per iteration and DOF: 0.377000 [ns]
	Retrieve results bandwith 2.808000 [GByte/s]
nonehipGKOCG:  Solving for p, Initial residual = 0.00589865, Final residual = 5.37819e-05, No Iterations 676
linear solve p 267701
time step continuity errors : sum local = 1.32157e-09, global = -3.78166e-22, cumulative = -5.15146e-21
ExecutionTime = 13.24 s  ClockTime = 14 s

Time = 0.0015

Courant Number mean: 0.00795861 max: 0.0911006
DILUPBiCGStab:  Solving for Ux, Initial residual = 0.011447, Final residual = 5.27585e-08, No Iterations 5
DILUPBiCGStab:  Solving for Uy, Initial residual = 0.0156259, Final residual = 3.02503e-08, No Iterations 5
DILUPBiCGStab:  Solving for Uz, Initial residual = 0.0300849, Final residual = 6.55585e-08, No Iterations 5
linear solve U 99257
[OGL LOG][Proc: 0]global_index_init: 0.02 [ms]
[OGL LOG][Proc: 0]global_index_init: 0.002 [ms]
[OGL LOG][Proc: 0]update_host_matrix_data: 7.457 [ms]
[OGL LOG][Proc: 0]gather_global_matrix: 0 [ms]
[OGL LOG][Proc: 0]generate_distributed_matrix: 2.787 [ms]
[OGL LOG][Proc: 0]init_precond: 0.042 [ms]
[OGL LOG][Proc: 0]generate_solver: 0.003 [ms]
[OGL LOG][Proc: 0]solve: 255.609 [ms]
[OGL LOG][Proc: 0]copy_x_back: 0.346 [ms]
[OGL LOG][lduLduBase.H:380] 
Statistics:
	Time per iteration: 378 [mu s]
	Time per iteration and DOF: 0.378000 [ns]
	Retrieve results bandwith 2.890000 [GByte/s]
nonehipGKOCG:  Solving for p, Initial residual = 0.00650244, Final residual = 7.35738e-05, No Iterations 676
linear solve p 267669
time step continuity errors : sum local = 1.80955e-09, global = 1.41855e-21, cumulative = -3.73291e-21
[OGL LOG][Proc: 0]global_index_init: 0.041 [ms]
[OGL LOG][Proc: 0]global_index_init: 0.004 [ms]
[OGL LOG][Proc: 0]update_host_matrix_data: 7.37 [ms]
[OGL LOG][Proc: 0]gather_global_matrix: 0 [ms]
[OGL LOG][Proc: 0]generate_distributed_matrix: 3.4 [ms]
[OGL LOG][Proc: 0]init_precond: 0.043 [ms]
[OGL LOG][Proc: 0]generate_solver: 0.004 [ms]
[OGL LOG][Proc: 0]solve: 207.425 [ms]
[OGL LOG][Proc: 0]copy_x_back: 0.343 [ms]
[OGL LOG][lduLduBase.H:380] 
Statistics:
	Time per iteration: 383 [mu s]
	Time per iteration and DOF: 0.383000 [ns]
	Retrieve results bandwith 2.915000 [GByte/s]
nonehipGKOCG:  Solving for p, Initial residual = 0.00534519, Final residual = 9.88231e-05, No Iterations 541
linear solve p 220047
time step continuity errors : sum local = 2.46865e-09, global = -2.06164e-22, cumulative = -3.93908e-21
ExecutionTime = 13.88 s  ClockTime = 15 s

Time = 0.0016

Courant Number mean: 0.00817648 max: 0.091377
DILUPBiCGStab:  Solving for Ux, Initial residual = 0.0106401, Final residual = 4.81179e-08, No Iterations 5
DILUPBiCGStab:  Solving for Uy, Initial residual = 0.0145001, Final residual = 2.79081e-08, No Iterations 5
DILUPBiCGStab:  Solving for Uz, Initial residual = 0.0280949, Final residual = 5.94993e-08, No Iterations 5
linear solve U 98832
[OGL LOG][Proc: 0]global_index_init: 0.014 [ms]
[OGL LOG][Proc: 0]global_index_init: 0.004 [ms]
[OGL LOG][Proc: 0]update_host_matrix_data: 7.304 [ms]
[OGL LOG][Proc: 0]gather_global_matrix: 0 [ms]
[OGL LOG][Proc: 0]generate_distributed_matrix: 3.014 [ms]
[OGL LOG][Proc: 0]init_precond: 0.043 [ms]
[OGL LOG][Proc: 0]generate_solver: 0.004 [ms]
[OGL LOG][Proc: 0]solve: 171.759 [ms]
[OGL LOG][Proc: 0]copy_x_back: 0.344 [ms]
[OGL LOG][lduLduBase.H:380] 
Statistics:
	Time per iteration: 388 [mu s]
	Time per iteration and DOF: 0.388000 [ns]
	Retrieve results bandwith 2.906000 [GByte/s]
nonehipGKOCG:  Solving for p, Initial residual = 0.00596807, Final residual = 1.06984e-05, No Iterations 442
linear solve p 184082
time step continuity errors : sum local = 2.92469e-10, global = -1.7167e-22, cumulative = -4.11075e-21
[OGL LOG][Proc: 0]global_index_init: 0.022 [ms]
[OGL LOG][Proc: 0]global_index_init: 0.002 [ms]
[OGL LOG][Proc: 0]update_host_matrix_data: 7.402 [ms]
[OGL LOG][Proc: 0]gather_global_matrix: 0 [ms]
[OGL LOG][Proc: 0]generate_distributed_matrix: 3.019 [ms]
[OGL LOG][Proc: 0]init_precond: 0.045 [ms]
[OGL LOG][Proc: 0]generate_solver: 0.004 [ms]
[OGL LOG][Proc: 0]solve: 151.046 [ms]
[OGL LOG][Proc: 0]copy_x_back: 0.34 [ms]
[OGL LOG][lduLduBase.H:380] 
Statistics:
	Time per iteration: 421 [mu s]
	Time per iteration and DOF: 0.421000 [ns]
	Retrieve results bandwith 2.941000 [GByte/s]
nonehipGKOCG:  Solving for p, Initial residual = 0.00486492, Final residual = 1.40331e-05, No Iterations 358
linear solve p 163787
time step continuity errors : sum local = 3.86517e-10, global = -4.21025e-22, cumulative = -4.53177e-21
ExecutionTime = 14.39 s  ClockTime = 15 s

Time = 0.0017

Courant Number mean: 0.00838248 max: 0.0916252
DILUPBiCGStab:  Solving for Ux, Initial residual = 0.00993242, Final residual = 4.41321e-08, No Iterations 5
DILUPBiCGStab:  Solving for Uy, Initial residual = 0.0135174, Final residual = 2.58978e-08, No Iterations 5
DILUPBiCGStab:  Solving for Uz, Initial residual = 0.0263592, Final residual = 5.34863e-08, No Iterations 5
linear solve U 99374
[OGL LOG][Proc: 0]global_index_init: 0.027 [ms]
[OGL LOG][Proc: 0]global_index_init: 0.002 [ms]
[OGL LOG][Proc: 0]update_host_matrix_data: 7.421 [ms]
[OGL LOG][Proc: 0]gather_global_matrix: 0 [ms]
[OGL LOG][Proc: 0]generate_distributed_matrix: 4.392 [ms]
[OGL LOG][Proc: 0]init_precond: 0.042 [ms]
[OGL LOG][Proc: 0]generate_solver: 0.004 [ms]
[OGL LOG][Proc: 0]solve: 120.271 [ms]
[OGL LOG][Proc: 0]copy_x_back: 0.355 [ms]
[OGL LOG][lduLduBase.H:380] 
Statistics:
	Time per iteration: 407 [mu s]
	Time per iteration and DOF: 0.407000 [ns]
	Retrieve results bandwith 2.816000 [GByte/s]
nonehipGKOCG:  Solving for p, Initial residual = 0.00536052, Final residual = 3.24422e-05, No Iterations 295
linear solve p 134428
time step continuity errors : sum local = 8.11566e-10, global = -5.3546e-22, cumulative = -5.06723e-21
[OGL LOG][Proc: 0]global_index_init: 0.028 [ms]
[OGL LOG][Proc: 0]global_index_init: 0.003 [ms]
[OGL LOG][Proc: 0]update_host_matrix_data: 7.53 [ms]
[OGL LOG][Proc: 0]gather_global_matrix: 0 [ms]
[OGL LOG][Proc: 0]generate_distributed_matrix: 2.955 [ms]
[OGL LOG][Proc: 0]init_precond: 0.043 [ms]
[OGL LOG][Proc: 0]generate_solver: 0.004 [ms]
[OGL LOG][Proc: 0]solve: 104.025 [ms]
[OGL LOG][Proc: 0]copy_x_back: 0.34 [ms]
[OGL LOG][lduLduBase.H:380] 
Statistics:
	Time per iteration: 392 [mu s]
	Time per iteration and DOF: 0.392000 [ns]
	Retrieve results bandwith 2.941000 [GByte/s]
nonehipGKOCG:  Solving for p, Initial residual = 0.00439783, Final residual = 7.70898e-05, No Iterations 265
linear solve p 116382
time step continuity errors : sum local = 1.93477e-09, global = -1.69021e-21, cumulative = -6.75744e-21
ExecutionTime = 14.81 s  ClockTime = 16 s

Time = 0.0018

Courant Number mean: 0.00857955 max: 0.0918497
DILUPBiCGStab:  Solving for Ux, Initial residual = 0.00931085, Final residual = 4.06863e-08, No Iterations 5
DILUPBiCGStab:  Solving for Uy, Initial residual = 0.0126548, Final residual = 2.41733e-08, No Iterations 5
DILUPBiCGStab:  Solving for Uz, Initial residual = 0.0247712, Final residual = 4.94156e-08, No Iterations 5
linear solve U 101441
[OGL LOG][Proc: 0]global_index_init: 0.013 [ms]
[OGL LOG][Proc: 0]global_index_init: 0.002 [ms]
[OGL LOG][Proc: 0]update_host_matrix_data: 7.455 [ms]
[OGL LOG][Proc: 0]gather_global_matrix: 0 [ms]
[OGL LOG][Proc: 0]generate_distributed_matrix: 2.925 [ms]
[OGL LOG][Proc: 0]init_precond: 0.047 [ms]
[OGL LOG][Proc: 0]generate_solver: 0.004 [ms]
[OGL LOG][Proc: 0]solve: 108.044 [ms]
[OGL LOG][Proc: 0]copy_x_back: 0.352 [ms]
[OGL LOG][lduLduBase.H:380] 
Statistics:
	Time per iteration: 398 [mu s]
	Time per iteration and DOF: 0.398000 [ns]
	Retrieve results bandwith 2.840000 [GByte/s]
nonehipGKOCG:  Solving for p, Initial residual = 0.00502523, Final residual = 7.17894e-05, No Iterations 271
linear solve p 120275
time step continuity errors : sum local = 1.78113e-09, global = -9.08523e-22, cumulative = -7.66596e-21
[OGL LOG][Proc: 0]global_index_init: 0.013 [ms]
[OGL LOG][Proc: 0]global_index_init: 0.002 [ms]
[OGL LOG][Proc: 0]update_host_matrix_data: 7.32 [ms]
[OGL LOG][Proc: 0]gather_global_matrix: 0 [ms]
[OGL LOG][Proc: 0]generate_distributed_matrix: 2.925 [ms]
[OGL LOG][Proc: 0]init_precond: 0.043 [ms]
[OGL LOG][Proc: 0]generate_solver: 0.004 [ms]
[OGL LOG][Proc: 0]solve: 103.744 [ms]
[OGL LOG][Proc: 0]copy_x_back: 0.341 [ms]
[OGL LOG][lduLduBase.H:380] 
Statistics:
	Time per iteration: 397 [mu s]
	Time per iteration and DOF: 0.397000 [ns]
	Retrieve results bandwith 2.932000 [GByte/s]
nonehipGKOCG:  Solving for p, Initial residual = 0.00413497, Final residual = 8.74653e-05, No Iterations 261
linear solve p 116132
time step continuity errors : sum local = 2.18744e-09, global = -1.70603e-21, cumulative = -9.372e-21
ExecutionTime = 15.19 s  ClockTime = 16 s

Time = 0.0019

Courant Number mean: 0.00876812 max: 0.092054
DILUPBiCGStab:  Solving for Ux, Initial residual = 0.00875809, Final residual = 3.76753e-08, No Iterations 5
DILUPBiCGStab:  Solving for Uy, Initial residual = 0.0118905, Final residual = 2.26802e-08, No Iterations 5
DILUPBiCGStab:  Solving for Uz, Initial residual = 0.0233608, Final residual = 4.60912e-08, No Iterations 5
linear solve U 99224
[OGL LOG][Proc: 0]global_index_init: 0.021 [ms]
[OGL LOG][Proc: 0]global_index_init: 0.003 [ms]
[OGL LOG][Proc: 0]update_host_matrix_data: 7.361 [ms]
[OGL LOG][Proc: 0]gather_global_matrix: 0 [ms]
[OGL LOG][Proc: 0]generate_distributed_matrix: 2.908 [ms]
[OGL LOG][Proc: 0]init_precond: 0.045 [ms]
[OGL LOG][Proc: 0]generate_solver: 0.004 [ms]
[OGL LOG][Proc: 0]solve: 114.13 [ms]
[OGL LOG][Proc: 0]copy_x_back: 0.333 [ms]
[OGL LOG][lduLduBase.H:380] 
Statistics:
	Time per iteration: 421 [mu s]
	Time per iteration and DOF: 0.421000 [ns]
	Retrieve results bandwith 3.003000 [GByte/s]
nonehipGKOCG:  Solving for p, Initial residual = 0.00468733, Final residual = 6.94591e-05, No Iterations 271
linear solve p 126371
time step continuity errors : sum local = 1.72004e-09, global = -1.23115e-21, cumulative = -1.06031e-20
[OGL LOG][Proc: 0]global_index_init: 0.017 [ms]
[OGL LOG][Proc: 0]global_index_init: 0.002 [ms]
[OGL LOG][Proc: 0]update_host_matrix_data: 7.503 [ms]
[OGL LOG][Proc: 0]gather_global_matrix: 0 [ms]
[OGL LOG][Proc: 0]generate_distributed_matrix: 3.042 [ms]
[OGL LOG][Proc: 0]init_precond: 0.045 [ms]
[OGL LOG][Proc: 0]generate_solver: 0.004 [ms]
[OGL LOG][Proc: 0]solve: 113.64 [ms]
[OGL LOG][Proc: 0]copy_x_back: 0.371 [ms]
[OGL LOG][lduLduBase.H:380] 
Statistics:
	Time per iteration: 435 [mu s]
	Time per iteration and DOF: 0.435000 [ns]
	Retrieve results bandwith 2.695000 [GByte/s]
nonehipGKOCG:  Solving for p, Initial residual = 0.00385993, Final residual = 8.16753e-05, No Iterations 261
linear solve p 126114
time step continuity errors : sum local = 2.04022e-09, global = 2.18686e-23, cumulative = -1.05813e-20
ExecutionTime = 15.6 s  ClockTime = 16 s

Time = 0.002

Courant Number mean: 0.00894848 max: 0.0922409
DILUPBiCGStab:  Solving for Ux, Initial residual = 0.00826091, Final residual = 3.50136e-08, No Iterations 5
DILUPBiCGStab:  Solving for Uy, Initial residual = 0.0112089, Final residual = 2.13818e-08, No Iterations 5
DILUPBiCGStab:  Solving for Uz, Initial residual = 0.0220946, Final residual = 4.32379e-08, No Iterations 5
linear solve U 107812
[OGL LOG][Proc: 0]global_index_init: 0.032 [ms]
[OGL LOG][Proc: 0]global_index_init: 0.003 [ms]
[OGL LOG][Proc: 0]update_host_matrix_data: 7.46 [ms]
[OGL LOG][Proc: 0]gather_global_matrix: 0 [ms]
[OGL LOG][Proc: 0]generate_distributed_matrix: 3.109 [ms]
[OGL LOG][Proc: 0]init_precond: 0.045 [ms]
[OGL LOG][Proc: 0]generate_solver: 0.004 [ms]
[OGL LOG][Proc: 0]solve: 122.246 [ms]
[OGL LOG][Proc: 0]copy_x_back: 0.467 [ms]
[OGL LOG][lduLduBase.H:380] 
Statistics:
	Time per iteration: 468 [mu s]
	Time per iteration and DOF: 0.468000 [ns]
	Retrieve results bandwith 2.141000 [GByte/s]
nonehipGKOCG:  Solving for p, Initial residual = 0.00432887, Final residual = 9.41022e-05, No Iterations 261
linear solve p 135223
time step continuity errors : sum local = 2.33501e-09, global = -3.37579e-22, cumulative = -1.09189e-20
[OGL LOG][Proc: 0]global_index_init: 0.014 [ms]
[OGL LOG][Proc: 0]global_index_init: 0.002 [ms]
[OGL LOG][Proc: 0]update_host_matrix_data: 7.485 [ms]
[OGL LOG][Proc: 0]gather_global_matrix: 0 [ms]
[OGL LOG][Proc: 0]generate_distributed_matrix: 2.947 [ms]
[OGL LOG][Proc: 0]init_precond: 0.044 [ms]
[OGL LOG][Proc: 0]generate_solver: 0.004 [ms]
[OGL LOG][Proc: 0]solve: 104.398 [ms]
[OGL LOG][Proc: 0]copy_x_back: 0.371 [ms]
[OGL LOG][lduLduBase.H:380] 
Statistics:
	Time per iteration: 399 [mu s]
	Time per iteration and DOF: 0.399000 [ns]
	Retrieve results bandwith 2.695000 [GByte/s]
nonehipGKOCG:  Solving for p, Initial residual = 0.00360013, Final residual = 6.9035e-05, No Iterations 261
linear solve p 116743
time step continuity errors : sum local = 1.72334e-09, global = -7.19378e-22, cumulative = -1.16382e-20
ExecutionTime = 16.03 s  ClockTime = 17 s

End

Finalising parallel run
================================================================================
hash: b47a485b9a90c8e4c6c1fead56a79b59
/*---------------------------------------------------------------------------*\
| =========                 |                                                 |
| \\      /  F ield         | OpenFOAM: The Open Source CFD Toolbox           |
|  \\    /   O peration     | Version:  v2106                                 |
|   \\  /    A nd           | Website:  www.openfoam.com                      |
|    \\/     M anipulation  |                                                 |
\*---------------------------------------------------------------------------*/
Build  : f815a12bba-20210902 OPENFOAM=2106
Arch   : "LSB;label=32;scalar=64"
Exec   : icoFoam -parallel
Date   : Aug 06 2022
Time   : 09:14:57
Host   : nla-gpu2.ianm.kit.edu
PID    : 24870
I/O    : uncollated
Case   : /home/greole/data/code/ogl_labbook/lidDrivenCavity/single_node/mesh/200/matrix_solver/CG_NoPrecond_Ginkgo_HIP/mpiRank_gko/8/base
nProcs : 8
Hosts  :
(
    (nla-gpu2.ianm.kit.edu 8)
)
Pstream initialized with:
    floatTransfer      : 0
    nProcsSimpleSum    : 0
    commsType          : nonBlocking
    polling iterations : 0
trapFpe: Floating point exception trapping enabled (FOAM_SIGFPE).
fileModificationChecking : Monitoring run-time modified files using timeStampMaster (fileModificationSkew 5, maxFileModificationPolls 20)
allowSystemOperations : Allowing user-supplied system call operations

// * * * * * * * * * * * * * * * * * * * * * * * * * * * * * * * * * * * * * //
Create time

Create mesh for time = 0


PISO: Operating solver in PISO mode

Reading transportProperties

Reading field p

Reading field U

Reading/calculating face flux field phi


Starting time loop

Time = 5e-05

Courant Number mean: 0 max: 0
DILUPBiCGStab:  Solving for Ux, Initial residual = 1, Final residual = 0.000105178, No Iterations 5
DILUPBiCGStab:  Solving for Uy:  solution singularity
DILUPBiCGStab:  Solving for Uz:  solution singularity
linear solve U 462093
[OGL LOG][Proc: 0]global_index_init: 0.187 [ms]
[OGL LOG][Proc: 0]global_index_init: 0.002 [ms]
[OGL LOG][Proc: 0]init_host_sparsity_pattern: 19061.4 [ms]
[OGL LOG][Proc: 0]update_host_matrix_data: 152.698 [ms]
[OGL LOG][Proc: 0]convert_coo_to_csr: 537.216 [ms]
[OGL LOG][lduLduBase.H:153] Initialising OGL
	Version:  e14864d
	branch: multi_gpu 
	Ginkgo version: 1.5.0(develop)
	MPI is GPU aware: 1)
	Forces host buffer based communication: 1
[OGL LOG][Proc: 0]gather_global_matrix: 0 [ms]
[OGL LOG][Proc: 0]generate_distributed_matrix: 71.157 [ms]
[OGL LOG][Proc: 0]init_precond: 0.109 [ms]
[OGL LOG][Proc: 0]generate_solver: 0.023 [ms]
[OGL LOG][Proc: 0]solve: 2091.97 [ms]
[OGL LOG][Proc: 0]copy_x_back: 2.727 [ms]
[OGL LOG][lduLduBase.H:380] 
Statistics:
	Time per iteration: 1295 [mu s]
	Time per iteration and DOF: 0.161875 [ns]
	Retrieve results bandwith 2.933000 [GByte/s]
nonehipGKOCG:  Solving for p, Initial residual = 1, Final residual = 9.93365e-05, No Iterations 1615
linear solve p 34996787
time step continuity errors : sum local = 6.57603e-10, global = 1.26149e-22, cumulative = 1.26149e-22
[OGL LOG][Proc: 0]global_index_init: 0.138 [ms]
[OGL LOG][Proc: 0]global_index_init: 0.002 [ms]
[OGL LOG][Proc: 0]update_host_matrix_data: 55.993 [ms]
[OGL LOG][Proc: 0]gather_global_matrix: 0 [ms]
[OGL LOG][Proc: 0]generate_distributed_matrix: 23.733 [ms]
[OGL LOG][Proc: 0]init_precond: 0.06 [ms]
[OGL LOG][Proc: 0]generate_solver: 0.004 [ms]
[OGL LOG][Proc: 0]solve: 1636.43 [ms]
[OGL LOG][Proc: 0]copy_x_back: 2.669 [ms]
[OGL LOG][lduLduBase.H:380] 
Statistics:
	Time per iteration: 1022 [mu s]
	Time per iteration and DOF: 0.127750 [ns]
	Retrieve results bandwith 2.997000 [GByte/s]
nonehipGKOCG:  Solving for p, Initial residual = 0.645047, Final residual = 7.59012e-05, No Iterations 1601
linear solve p 1730509
time step continuity errors : sum local = 7.25615e-10, global = 1.03596e-22, cumulative = 2.29746e-22
ExecutionTime = 42.63 s  ClockTime = 43 s

Time = 0.0001

Courant Number mean: 0.00156138 max: 0.0657801
DILUPBiCGStab:  Solving for Ux, Initial residual = 0.189842, Final residual = 5.73928e-05, No Iterations 5
DILUPBiCGStab:  Solving for Uy, Initial residual = 0.330046, Final residual = 5.39265e-05, No Iterations 5
DILUPBiCGStab:  Solving for Uz, Initial residual = 0.993231, Final residual = 0.000179331, No Iterations 5
linear solve U 862066
[OGL LOG][Proc: 0]global_index_init: 0.159 [ms]
[OGL LOG][Proc: 0]global_index_init: 0.003 [ms]
[OGL LOG][Proc: 0]update_host_matrix_data: 56.641 [ms]
[OGL LOG][Proc: 0]gather_global_matrix: 0 [ms]
[OGL LOG][Proc: 0]generate_distributed_matrix: 25.19 [ms]
[OGL LOG][Proc: 0]init_precond: 0.047 [ms]
[OGL LOG][Proc: 0]generate_solver: 0.003 [ms]
[OGL LOG][Proc: 0]solve: 1625.43 [ms]
[OGL LOG][Proc: 0]copy_x_back: 2.916 [ms]
[OGL LOG][lduLduBase.H:380] 
Statistics:
	Time per iteration: 1015 [mu s]
	Time per iteration and DOF: 0.126875 [ns]
	Retrieve results bandwith 2.743000 [GByte/s]
nonehipGKOCG:  Solving for p, Initial residual = 0.509851, Final residual = 3.46771e-05, No Iterations 1601
linear solve p 1720111
time step continuity errors : sum local = 3.2292e-10, global = 1.53311e-23, cumulative = 2.45077e-22
[OGL LOG][Proc: 0]global_index_init: 0.078 [ms]
[OGL LOG][Proc: 0]global_index_init: 0.003 [ms]
[OGL LOG][Proc: 0]update_host_matrix_data: 57.088 [ms]
[OGL LOG][Proc: 0]gather_global_matrix: 0 [ms]
[OGL LOG][Proc: 0]generate_distributed_matrix: 22.571 [ms]
[OGL LOG][Proc: 0]init_precond: 0.052 [ms]
[OGL LOG][Proc: 0]generate_solver: 0.004 [ms]
[OGL LOG][Proc: 0]solve: 1625.5 [ms]
[OGL LOG][Proc: 0]copy_x_back: 2.664 [ms]
[OGL LOG][lduLduBase.H:380] 
Statistics:
	Time per iteration: 1015 [mu s]
	Time per iteration and DOF: 0.126875 [ns]
	Retrieve results bandwith 3.003000 [GByte/s]
nonehipGKOCG:  Solving for p, Initial residual = 0.420557, Final residual = 3.29815e-05, No Iterations 1601
linear solve p 1716850
time step continuity errors : sum local = 3.1663e-10, global = 1.43751e-22, cumulative = 3.88828e-22
ExecutionTime = 47.43 s  ClockTime = 48 s

Time = 0.00015

Courant Number mean: 0.00241159 max: 0.0810514
DILUPBiCGStab:  Solving for Ux, Initial residual = 0.0803505, Final residual = 1.92309e-05, No Iterations 5
DILUPBiCGStab:  Solving for Uy, Initial residual = 0.137293, Final residual = 1.14595e-05, No Iterations 5
DILUPBiCGStab:  Solving for Uz, Initial residual = 0.0899288, Final residual = 2.31741e-05, No Iterations 5
linear solve U 863115
[OGL LOG][Proc: 0]global_index_init: 0.021 [ms]
[OGL LOG][Proc: 0]global_index_init: 0.002 [ms]
[OGL LOG][Proc: 0]update_host_matrix_data: 57.647 [ms]
[OGL LOG][Proc: 0]gather_global_matrix: 0 [ms]
[OGL LOG][Proc: 0]generate_distributed_matrix: 23.216 [ms]
[OGL LOG][Proc: 0]init_precond: 0.053 [ms]
[OGL LOG][Proc: 0]generate_solver: 0.004 [ms]
[OGL LOG][Proc: 0]solve: 1578.29 [ms]
[OGL LOG][Proc: 0]copy_x_back: 2.703 [ms]
[OGL LOG][lduLduBase.H:380] 
Statistics:
	Time per iteration: 1026 [mu s]
	Time per iteration and DOF: 0.128250 [ns]
	Retrieve results bandwith 2.959000 [GByte/s]
nonehipGKOCG:  Solving for p, Initial residual = 0.252664, Final residual = 8.51064e-05, No Iterations 1537
linear solve p 1675178
time step continuity errors : sum local = 6.12176e-10, global = 8.14842e-23, cumulative = 4.70312e-22
[OGL LOG][Proc: 0]global_index_init: 0.093 [ms]
[OGL LOG][Proc: 0]global_index_init: 0.002 [ms]
[OGL LOG][Proc: 0]update_host_matrix_data: 57.648 [ms]
[OGL LOG][Proc: 0]gather_global_matrix: 0 [ms]
[OGL LOG][Proc: 0]generate_distributed_matrix: 22.839 [ms]
[OGL LOG][Proc: 0]init_precond: 0.051 [ms]
[OGL LOG][Proc: 0]generate_solver: 0.004 [ms]
[OGL LOG][Proc: 0]solve: 1564.41 [ms]
[OGL LOG][Proc: 0]copy_x_back: 2.761 [ms]
[OGL LOG][lduLduBase.H:380] 
Statistics:
	Time per iteration: 1025 [mu s]
	Time per iteration and DOF: 0.128125 [ns]
	Retrieve results bandwith 2.897000 [GByte/s]
nonehipGKOCG:  Solving for p, Initial residual = 0.209043, Final residual = 9.91594e-05, No Iterations 1526
linear solve p 1657041
time step continuity errors : sum local = 7.05474e-10, global = 8.20792e-23, cumulative = 5.52391e-22
ExecutionTime = 52.09 s  ClockTime = 53 s

Time = 0.0002

Courant Number mean: 0.00299655 max: 0.0859676
DILUPBiCGStab:  Solving for Ux, Initial residual = 0.0511429, Final residual = 8.62035e-06, No Iterations 5
DILUPBiCGStab:  Solving for Uy, Initial residual = 0.085885, Final residual = 6.80009e-06, No Iterations 5
DILUPBiCGStab:  Solving for Uz, Initial residual = 0.111326, Final residual = 1.60266e-05, No Iterations 5
linear solve U 867920
[OGL LOG][Proc: 0]global_index_init: 0.078 [ms]
[OGL LOG][Proc: 0]global_index_init: 0.003 [ms]
[OGL LOG][Proc: 0]update_host_matrix_data: 57.497 [ms]
[OGL LOG][Proc: 0]gather_global_matrix: 0 [ms]
[OGL LOG][Proc: 0]generate_distributed_matrix: 22.788 [ms]
[OGL LOG][Proc: 0]init_precond: 0.055 [ms]
[OGL LOG][Proc: 0]generate_solver: 0.004 [ms]
[OGL LOG][Proc: 0]solve: 1572.72 [ms]
[OGL LOG][Proc: 0]copy_x_back: 2.776 [ms]
[OGL LOG][lduLduBase.H:380] 
Statistics:
	Time per iteration: 1030 [mu s]
	Time per iteration and DOF: 0.128750 [ns]
	Retrieve results bandwith 2.881000 [GByte/s]
nonehipGKOCG:  Solving for p, Initial residual = 0.12278, Final residual = 6.26107e-05, No Iterations 1526
linear solve p 1664974
time step continuity errors : sum local = 4.23349e-10, global = -1.27802e-22, cumulative = 4.24589e-22
[OGL LOG][Proc: 0]global_index_init: 0.103 [ms]
[OGL LOG][Proc: 0]global_index_init: 0.002 [ms]
[OGL LOG][Proc: 0]update_host_matrix_data: 57.558 [ms]
[OGL LOG][Proc: 0]gather_global_matrix: 0 [ms]
[OGL LOG][Proc: 0]generate_distributed_matrix: 21.926 [ms]
[OGL LOG][Proc: 0]init_precond: 0.047 [ms]
[OGL LOG][Proc: 0]generate_solver: 0.01 [ms]
[OGL LOG][Proc: 0]solve: 1557.88 [ms]
[OGL LOG][Proc: 0]copy_x_back: 2.761 [ms]
[OGL LOG][lduLduBase.H:380] 
Statistics:
	Time per iteration: 1020 [mu s]
	Time per iteration and DOF: 0.127500 [ns]
	Retrieve results bandwith 2.897000 [GByte/s]
nonehipGKOCG:  Solving for p, Initial residual = 0.0994919, Final residual = 5.22209e-05, No Iterations 1526
linear solve p 1649175
time step continuity errors : sum local = 3.57039e-10, global = 1.63959e-23, cumulative = 4.40985e-22
ExecutionTime = 56.75 s  ClockTime = 57 s

Time = 0.00025

Courant Number mean: 0.0034614 max: 0.088316
DILUPBiCGStab:  Solving for Ux, Initial residual = 0.0380468, Final residual = 5.07032e-06, No Iterations 5
DILUPBiCGStab:  Solving for Uy, Initial residual = 0.0619933, Final residual = 5.01991e-06, No Iterations 5
DILUPBiCGStab:  Solving for Uz, Initial residual = 0.0914504, Final residual = 9.70192e-06, No Iterations 5
linear solve U 863548
[OGL LOG][Proc: 0]global_index_init: 0.118 [ms]
[OGL LOG][Proc: 0]global_index_init: 0.003 [ms]
[OGL LOG][Proc: 0]update_host_matrix_data: 57.653 [ms]
[OGL LOG][Proc: 0]gather_global_matrix: 0 [ms]
[OGL LOG][Proc: 0]generate_distributed_matrix: 22.586 [ms]
[OGL LOG][Proc: 0]init_precond: 0.051 [ms]
[OGL LOG][Proc: 0]generate_solver: 0.004 [ms]
[OGL LOG][Proc: 0]solve: 1565.57 [ms]
[OGL LOG][Proc: 0]copy_x_back: 2.842 [ms]
[OGL LOG][lduLduBase.H:380] 
Statistics:
	Time per iteration: 1025 [mu s]
	Time per iteration and DOF: 0.128125 [ns]
	Retrieve results bandwith 2.814000 [GByte/s]
nonehipGKOCG:  Solving for p, Initial residual = 0.0623037, Final residual = 4.2599e-05, No Iterations 1526
linear solve p 1658570
time step continuity errors : sum local = 2.81185e-10, global = -2.74746e-23, cumulative = 4.1351e-22
[OGL LOG][Proc: 0]global_index_init: 0.073 [ms]
[OGL LOG][Proc: 0]global_index_init: 0.002 [ms]
[OGL LOG][Proc: 0]update_host_matrix_data: 58.163 [ms]
[OGL LOG][Proc: 0]gather_global_matrix: 0 [ms]
[OGL LOG][Proc: 0]generate_distributed_matrix: 22.583 [ms]
[OGL LOG][Proc: 0]init_precond: 0.053 [ms]
[OGL LOG][Proc: 0]generate_solver: 0.004 [ms]
[OGL LOG][Proc: 0]solve: 1546.45 [ms]
[OGL LOG][Proc: 0]copy_x_back: 2.671 [ms]
[OGL LOG][lduLduBase.H:380] 
Statistics:
	Time per iteration: 1013 [mu s]
	Time per iteration and DOF: 0.126625 [ns]
	Retrieve results bandwith 2.995000 [GByte/s]
nonehipGKOCG:  Solving for p, Initial residual = 0.0524356, Final residual = 3.53005e-05, No Iterations 1526
linear solve p 1638830
time step continuity errors : sum local = 2.33361e-10, global = 3.57652e-22, cumulative = 7.71163e-22
ExecutionTime = 61.35 s  ClockTime = 62 s

Time = 0.0003

Courant Number mean: 0.00385429 max: 0.0897419
DILUPBiCGStab:  Solving for Ux, Initial residual = 0.0304961, Final residual = 3.34631e-06, No Iterations 5
DILUPBiCGStab:  Solving for Uy, Initial residual = 0.0485948, Final residual = 3.59936e-06, No Iterations 5
DILUPBiCGStab:  Solving for Uz, Initial residual = 0.0766902, Final residual = 6.85778e-06, No Iterations 5
linear solve U 861778
[OGL LOG][Proc: 0]global_index_init: 0.204 [ms]
[OGL LOG][Proc: 0]global_index_init: 0.003 [ms]
[OGL LOG][Proc: 0]update_host_matrix_data: 57.837 [ms]
[OGL LOG][Proc: 0]gather_global_matrix: 0 [ms]
[OGL LOG][Proc: 0]generate_distributed_matrix: 22.918 [ms]
[OGL LOG][Proc: 0]init_precond: 0.054 [ms]
[OGL LOG][Proc: 0]generate_solver: 0.004 [ms]
[OGL LOG][Proc: 0]solve: 1502.51 [ms]
[OGL LOG][Proc: 0]copy_x_back: 2.701 [ms]
[OGL LOG][lduLduBase.H:380] 
Statistics:
	Time per iteration: 1025 [mu s]
	Time per iteration and DOF: 0.128125 [ns]
	Retrieve results bandwith 2.961000 [GByte/s]
nonehipGKOCG:  Solving for p, Initial residual = 0.0394326, Final residual = 8.88672e-05, No Iterations 1465
linear solve p 1594590
time step continuity errors : sum local = 5.81377e-10, global = -5.457e-23, cumulative = 7.16593e-22
[OGL LOG][Proc: 0]global_index_init: 0.039 [ms]
[OGL LOG][Proc: 0]global_index_init: 0.002 [ms]
[OGL LOG][Proc: 0]update_host_matrix_data: 58.143 [ms]
[OGL LOG][Proc: 0]gather_global_matrix: 0 [ms]
[OGL LOG][Proc: 0]generate_distributed_matrix: 22.783 [ms]
[OGL LOG][Proc: 0]init_precond: 0.051 [ms]
[OGL LOG][Proc: 0]generate_solver: 0.004 [ms]
[OGL LOG][Proc: 0]solve: 1495.44 [ms]
[OGL LOG][Proc: 0]copy_x_back: 2.887 [ms]
[OGL LOG][lduLduBase.H:380] 
Statistics:
	Time per iteration: 1030 [mu s]
	Time per iteration and DOF: 0.128750 [ns]
	Retrieve results bandwith 2.771000 [GByte/s]
nonehipGKOCG:  Solving for p, Initial residual = 0.0333847, Final residual = 9.75737e-05, No Iterations 1451
linear solve p 1588828
time step continuity errors : sum local = 6.41088e-10, global = -9.58325e-23, cumulative = 6.2076e-22
ExecutionTime = 65.88 s  ClockTime = 67 s

Time = 0.00035

Courant Number mean: 0.00419845 max: 0.0907274
DILUPBiCGStab:  Solving for Ux, Initial residual = 0.025523, Final residual = 2.61682e-06, No Iterations 5
DILUPBiCGStab:  Solving for Uy, Initial residual = 0.0399281, Final residual = 2.91933e-06, No Iterations 5
DILUPBiCGStab:  Solving for Uz, Initial residual = 0.0657568, Final residual = 4.67195e-06, No Iterations 5
linear solve U 860653
[OGL LOG][Proc: 0]global_index_init: 0.181 [ms]
[OGL LOG][Proc: 0]global_index_init: 0.002 [ms]
[OGL LOG][Proc: 0]update_host_matrix_data: 58.26 [ms]
[OGL LOG][Proc: 0]gather_global_matrix: 0 [ms]
[OGL LOG][Proc: 0]generate_distributed_matrix: 22.941 [ms]
[OGL LOG][Proc: 0]init_precond: 0.053 [ms]
[OGL LOG][Proc: 0]generate_solver: 0.004 [ms]
[OGL LOG][Proc: 0]solve: 1489.98 [ms]
[OGL LOG][Proc: 0]copy_x_back: 2.7 [ms]
[OGL LOG][lduLduBase.H:380] 
Statistics:
	Time per iteration: 1026 [mu s]
	Time per iteration and DOF: 0.128250 [ns]
	Retrieve results bandwith 2.962000 [GByte/s]
nonehipGKOCG:  Solving for p, Initial residual = 0.029033, Final residual = 8.20909e-05, No Iterations 1451
linear solve p 1583044
time step continuity errors : sum local = 5.38747e-10, global = -8.32404e-23, cumulative = 5.3752e-22
[OGL LOG][Proc: 0]global_index_init: 0.045 [ms]
[OGL LOG][Proc: 0]global_index_init: 0.003 [ms]
[OGL LOG][Proc: 0]update_host_matrix_data: 57.962 [ms]
[OGL LOG][Proc: 0]gather_global_matrix: 0 [ms]
[OGL LOG][Proc: 0]generate_distributed_matrix: 22.659 [ms]
[OGL LOG][Proc: 0]init_precond: 0.049 [ms]
[OGL LOG][Proc: 0]generate_solver: 0.004 [ms]
[OGL LOG][Proc: 0]solve: 1482.79 [ms]
[OGL LOG][Proc: 0]copy_x_back: 2.702 [ms]
[OGL LOG][lduLduBase.H:380] 
Statistics:
	Time per iteration: 1021 [mu s]
	Time per iteration and DOF: 0.127625 [ns]
	Retrieve results bandwith 2.960000 [GByte/s]
nonehipGKOCG:  Solving for p, Initial residual = 0.0252264, Final residual = 6.81956e-05, No Iterations 1451
linear solve p 1575878
time step continuity errors : sum local = 4.48389e-10, global = 1.19859e-22, cumulative = 6.57378e-22
ExecutionTime = 70.37 s  ClockTime = 71 s

Time = 0.0004

Courant Number mean: 0.00450624 max: 0.0914619
DILUPBiCGStab:  Solving for Ux, Initial residual = 0.021975, Final residual = 2.21248e-06, No Iterations 5
DILUPBiCGStab:  Solving for Uy, Initial residual = 0.0338747, Final residual = 2.24842e-06, No Iterations 5
DILUPBiCGStab:  Solving for Uz, Initial residual = 0.0577985, Final residual = 3.55084e-06, No Iterations 5
linear solve U 862708
[OGL LOG][Proc: 0]global_index_init: 0.225 [ms]
[OGL LOG][Proc: 0]global_index_init: 0.003 [ms]
[OGL LOG][Proc: 0]update_host_matrix_data: 57.597 [ms]
[OGL LOG][Proc: 0]gather_global_matrix: 0 [ms]
[OGL LOG][Proc: 0]generate_distributed_matrix: 23.348 [ms]
[OGL LOG][Proc: 0]init_precond: 0.049 [ms]
[OGL LOG][Proc: 0]generate_solver: 0.004 [ms]
[OGL LOG][Proc: 0]solve: 1488.69 [ms]
[OGL LOG][Proc: 0]copy_x_back: 2.773 [ms]
[OGL LOG][lduLduBase.H:380] 
Statistics:
	Time per iteration: 1025 [mu s]
	Time per iteration and DOF: 0.128125 [ns]
	Retrieve results bandwith 2.884000 [GByte/s]
nonehipGKOCG:  Solving for p, Initial residual = 0.0216098, Final residual = 7.95871e-05, No Iterations 1451
linear solve p 1583565
time step continuity errors : sum local = 5.23263e-10, global = 6.14569e-23, cumulative = 7.18835e-22
[OGL LOG][Proc: 0]global_index_init: 0.024 [ms]
[OGL LOG][Proc: 0]global_index_init: 0.002 [ms]
[OGL LOG][Proc: 0]update_host_matrix_data: 57.965 [ms]
[OGL LOG][Proc: 0]gather_global_matrix: 0 [ms]
[OGL LOG][Proc: 0]generate_distributed_matrix: 22.805 [ms]
[OGL LOG][Proc: 0]init_precond: 0.053 [ms]
[OGL LOG][Proc: 0]generate_solver: 0.004 [ms]
[OGL LOG][Proc: 0]solve: 1479.12 [ms]
[OGL LOG][Proc: 0]copy_x_back: 2.71 [ms]
[OGL LOG][lduLduBase.H:380] 
Statistics:
	Time per iteration: 1019 [mu s]
	Time per iteration and DOF: 0.127375 [ns]
	Retrieve results bandwith 2.952000 [GByte/s]
nonehipGKOCG:  Solving for p, Initial residual = 0.0191254, Final residual = 6.0185e-05, No Iterations 1451
linear solve p 1572234
time step continuity errors : sum local = 3.96524e-10, global = 3.21322e-22, cumulative = 1.04016e-21
ExecutionTime = 74.84 s  ClockTime = 76 s

Time = 0.00045

Courant Number mean: 0.00478568 max: 0.0920367
DILUPBiCGStab:  Solving for Ux, Initial residual = 0.0193078, Final residual = 1.90982e-06, No Iterations 5
DILUPBiCGStab:  Solving for Uy, Initial residual = 0.0293945, Final residual = 1.85868e-06, No Iterations 5
DILUPBiCGStab:  Solving for Uz, Initial residual = 0.0512607, Final residual = 2.75352e-06, No Iterations 5
linear solve U 858561
[OGL LOG][Proc: 0]global_index_init: 0.247 [ms]
[OGL LOG][Proc: 0]global_index_init: 0.003 [ms]
[OGL LOG][Proc: 0]update_host_matrix_data: 57.865 [ms]
[OGL LOG][Proc: 0]gather_global_matrix: 0 [ms]
[OGL LOG][Proc: 0]generate_distributed_matrix: 22.849 [ms]
[OGL LOG][Proc: 0]init_precond: 0.053 [ms]
[OGL LOG][Proc: 0]generate_solver: 0.004 [ms]
[OGL LOG][Proc: 0]solve: 1486.47 [ms]
[OGL LOG][Proc: 0]copy_x_back: 2.733 [ms]
[OGL LOG][lduLduBase.H:380] 
Statistics:
	Time per iteration: 1024 [mu s]
	Time per iteration and DOF: 0.128000 [ns]
	Retrieve results bandwith 2.927000 [GByte/s]
nonehipGKOCG:  Solving for p, Initial residual = 0.0179615, Final residual = 6.46189e-05, No Iterations 1451
linear solve p 1578790
time step continuity errors : sum local = 4.25916e-10, global = -3.65918e-23, cumulative = 1.00357e-21
[OGL LOG][Proc: 0]global_index_init: 0.056 [ms]
[OGL LOG][Proc: 0]global_index_init: 0.003 [ms]
[OGL LOG][Proc: 0]update_host_matrix_data: 58.098 [ms]
[OGL LOG][Proc: 0]gather_global_matrix: 0 [ms]
[OGL LOG][Proc: 0]generate_distributed_matrix: 22.445 [ms]
[OGL LOG][Proc: 0]init_precond: 0.046 [ms]
[OGL LOG][Proc: 0]generate_solver: 0.004 [ms]
[OGL LOG][Proc: 0]solve: 1496 [ms]
[OGL LOG][Proc: 0]copy_x_back: 2.72 [ms]
[OGL LOG][lduLduBase.H:380] 
Statistics:
	Time per iteration: 1031 [mu s]
	Time per iteration and DOF: 0.128875 [ns]
	Retrieve results bandwith 2.941000 [GByte/s]
nonehipGKOCG:  Solving for p, Initial residual = 0.0160059, Final residual = 4.7408e-05, No Iterations 1451
linear solve p 1588390
time step continuity errors : sum local = 3.12919e-10, global = 1.77234e-22, cumulative = 1.1808e-21
ExecutionTime = 79.34 s  ClockTime = 80 s

Time = 0.0005

Courant Number mean: 0.00504291 max: 0.0925025
DILUPBiCGStab:  Solving for Ux, Initial residual = 0.0172237, Final residual = 1.67654e-06, No Iterations 5
DILUPBiCGStab:  Solving for Uy, Initial residual = 0.0259482, Final residual = 1.54002e-06, No Iterations 5
DILUPBiCGStab:  Solving for Uz, Initial residual = 0.0461524, Final residual = 2.24808e-06, No Iterations 5
linear solve U 863836
[OGL LOG][Proc: 0]global_index_init: 0.212 [ms]
[OGL LOG][Proc: 0]global_index_init: 0.003 [ms]
[OGL LOG][Proc: 0]update_host_matrix_data: 57.79 [ms]
[OGL LOG][Proc: 0]gather_global_matrix: 0 [ms]
[OGL LOG][Proc: 0]generate_distributed_matrix: 22.255 [ms]
[OGL LOG][Proc: 0]init_precond: 0.052 [ms]
[OGL LOG][Proc: 0]generate_solver: 0.004 [ms]
[OGL LOG][Proc: 0]solve: 1483.47 [ms]
[OGL LOG][Proc: 0]copy_x_back: 2.699 [ms]
[OGL LOG][lduLduBase.H:380] 
Statistics:
	Time per iteration: 1022 [mu s]
	Time per iteration and DOF: 0.127750 [ns]
	Retrieve results bandwith 2.964000 [GByte/s]
nonehipGKOCG:  Solving for p, Initial residual = 0.015015, Final residual = 5.48566e-05, No Iterations 1451
linear solve p 1576165
time step continuity errors : sum local = 3.62297e-10, global = -2.569e-22, cumulative = 9.23899e-22
[OGL LOG][Proc: 0]global_index_init: 0.02 [ms]
[OGL LOG][Proc: 0]global_index_init: 0.002 [ms]
[OGL LOG][Proc: 0]update_host_matrix_data: 58.279 [ms]
[OGL LOG][Proc: 0]gather_global_matrix: 0 [ms]
[OGL LOG][Proc: 0]generate_distributed_matrix: 22.717 [ms]
[OGL LOG][Proc: 0]init_precond: 0.052 [ms]
[OGL LOG][Proc: 0]generate_solver: 0.004 [ms]
[OGL LOG][Proc: 0]solve: 1428.12 [ms]
[OGL LOG][Proc: 0]copy_x_back: 2.821 [ms]
[OGL LOG][lduLduBase.H:380] 
Statistics:
	Time per iteration: 1025 [mu s]
	Time per iteration and DOF: 0.128125 [ns]
	Retrieve results bandwith 2.835000 [GByte/s]
nonehipGKOCG:  Solving for p, Initial residual = 0.0134618, Final residual = 9.63252e-05, No Iterations 1393
linear solve p 1521250
time step continuity errors : sum local = 6.37054e-10, global = -6.02162e-23, cumulative = 8.63683e-22
ExecutionTime = 83.78 s  ClockTime = 85 s

Time = 0.00055

Courant Number mean: 0.00528113 max: 0.0928899
DILUPBiCGStab:  Solving for Ux, Initial residual = 0.0155466, Final residual = 1.48865e-06, No Iterations 5
DILUPBiCGStab:  Solving for Uy, Initial residual = 0.0232129, Final residual = 1.31833e-06, No Iterations 5
DILUPBiCGStab:  Solving for Uz, Initial residual = 0.0417988, Final residual = 1.8811e-06, No Iterations 5
linear solve U 862079
[OGL LOG][Proc: 0]global_index_init: 0.165 [ms]
[OGL LOG][Proc: 0]global_index_init: 0.002 [ms]
[OGL LOG][Proc: 0]update_host_matrix_data: 57.888 [ms]
[OGL LOG][Proc: 0]gather_global_matrix: 0 [ms]
[OGL LOG][Proc: 0]generate_distributed_matrix: 22.886 [ms]
[OGL LOG][Proc: 0]init_precond: 0.05 [ms]
[OGL LOG][Proc: 0]generate_solver: 0.004 [ms]
[OGL LOG][Proc: 0]solve: 1461.74 [ms]
[OGL LOG][Proc: 0]copy_x_back: 2.743 [ms]
[OGL LOG][lduLduBase.H:380] 
Statistics:
	Time per iteration: 1021 [mu s]
	Time per iteration and DOF: 0.127625 [ns]
	Retrieve results bandwith 2.916000 [GByte/s]
nonehipGKOCG:  Solving for p, Initial residual = 0.0130951, Final residual = 6.20752e-05, No Iterations 1431
linear solve p 1554511
time step continuity errors : sum local = 4.10777e-10, global = 2.57895e-22, cumulative = 1.12158e-21
[OGL LOG][Proc: 0]global_index_init: 0.021 [ms]
[OGL LOG][Proc: 0]global_index_init: 0.003 [ms]
[OGL LOG][Proc: 0]update_host_matrix_data: 58.004 [ms]
[OGL LOG][Proc: 0]gather_global_matrix: 0 [ms]
[OGL LOG][Proc: 0]generate_distributed_matrix: 22.922 [ms]
[OGL LOG][Proc: 0]init_precond: 0.058 [ms]
[OGL LOG][Proc: 0]generate_solver: 0.005 [ms]
[OGL LOG][Proc: 0]solve: 1465.89 [ms]
[OGL LOG][Proc: 0]copy_x_back: 2.755 [ms]
[OGL LOG][lduLduBase.H:380] 
Statistics:
	Time per iteration: 1027 [mu s]
	Time per iteration and DOF: 0.128375 [ns]
	Retrieve results bandwith 2.903000 [GByte/s]
nonehipGKOCG:  Solving for p, Initial residual = 0.0117534, Final residual = 6.23088e-05, No Iterations 1426
linear solve p 1559859
time step continuity errors : sum local = 4.12748e-10, global = 8.49277e-23, cumulative = 1.2065e-21
ExecutionTime = 88.22 s  ClockTime = 89 s

Time = 0.0006

Courant Number mean: 0.00550388 max: 0.0932187
DILUPBiCGStab:  Solving for Ux, Initial residual = 0.0141663, Final residual = 1.33493e-06, No Iterations 5
DILUPBiCGStab:  Solving for Uy, Initial residual = 0.0209901, Final residual = 1.14091e-06, No Iterations 5
DILUPBiCGStab:  Solving for Uz, Initial residual = 0.0383247, Final residual = 1.63472e-06, No Iterations 5
linear solve U 864118
[OGL LOG][Proc: 0]global_index_init: 0.201 [ms]
[OGL LOG][Proc: 0]global_index_init: 0.003 [ms]
[OGL LOG][Proc: 0]update_host_matrix_data: 58.774 [ms]
[OGL LOG][Proc: 0]gather_global_matrix: 0 [ms]
[OGL LOG][Proc: 0]generate_distributed_matrix: 23.175 [ms]
[OGL LOG][Proc: 0]init_precond: 0.057 [ms]
[OGL LOG][Proc: 0]generate_solver: 0.004 [ms]
[OGL LOG][Proc: 0]solve: 1462.82 [ms]
[OGL LOG][Proc: 0]copy_x_back: 2.74 [ms]
[OGL LOG][lduLduBase.H:380] 
Statistics:
	Time per iteration: 1025 [mu s]
	Time per iteration and DOF: 0.128125 [ns]
	Retrieve results bandwith 2.919000 [GByte/s]
nonehipGKOCG:  Solving for p, Initial residual = 0.0115083, Final residual = 6.70635e-05, No Iterations 1426
linear solve p 1558035
time step continuity errors : sum local = 4.44522e-10, global = 8.81227e-23, cumulative = 1.29463e-21
[OGL LOG][Proc: 0]global_index_init: 0.034 [ms]
[OGL LOG][Proc: 0]global_index_init: 0.003 [ms]
[OGL LOG][Proc: 0]update_host_matrix_data: 57.98 [ms]
[OGL LOG][Proc: 0]gather_global_matrix: 0 [ms]
[OGL LOG][Proc: 0]generate_distributed_matrix: 22.598 [ms]
[OGL LOG][Proc: 0]init_precond: 0.052 [ms]
[OGL LOG][Proc: 0]generate_solver: 0.004 [ms]
[OGL LOG][Proc: 0]solve: 1467.21 [ms]
[OGL LOG][Proc: 0]copy_x_back: 2.73 [ms]
[OGL LOG][lduLduBase.H:380] 
Statistics:
	Time per iteration: 1028 [mu s]
	Time per iteration and DOF: 0.128500 [ns]
	Retrieve results bandwith 2.930000 [GByte/s]
nonehipGKOCG:  Solving for p, Initial residual = 0.0103677, Final residual = 5.16265e-05, No Iterations 1426
linear solve p 1559978
time step continuity errors : sum local = 3.42518e-10, global = 1.63321e-23, cumulative = 1.31096e-21
ExecutionTime = 92.68 s  ClockTime = 94 s

Time = 0.00065

Courant Number mean: 0.00571307 max: 0.0935022
DILUPBiCGStab:  Solving for Ux, Initial residual = 0.0130116, Final residual = 1.20606e-06, No Iterations 5
DILUPBiCGStab:  Solving for Uy, Initial residual = 0.0191478, Final residual = 1.00293e-06, No Iterations 5
DILUPBiCGStab:  Solving for Uz, Initial residual = 0.0353064, Final residual = 1.45201e-06, No Iterations 5
linear solve U 862016
[OGL LOG][Proc: 0]global_index_init: 0.187 [ms]
[OGL LOG][Proc: 0]global_index_init: 0.002 [ms]
[OGL LOG][Proc: 0]update_host_matrix_data: 57.753 [ms]
[OGL LOG][Proc: 0]gather_global_matrix: 0 [ms]
[OGL LOG][Proc: 0]generate_distributed_matrix: 22.977 [ms]
[OGL LOG][Proc: 0]init_precond: 0.065 [ms]
[OGL LOG][Proc: 0]generate_solver: 0.004 [ms]
[OGL LOG][Proc: 0]solve: 1456.49 [ms]
[OGL LOG][Proc: 0]copy_x_back: 2.73 [ms]
[OGL LOG][lduLduBase.H:380] 
Statistics:
	Time per iteration: 1021 [mu s]
	Time per iteration and DOF: 0.127625 [ns]
	Retrieve results bandwith 2.930000 [GByte/s]
nonehipGKOCG:  Solving for p, Initial residual = 0.0102013, Final residual = 5.80841e-05, No Iterations 1426
linear solve p 1549457
time step continuity errors : sum local = 3.85562e-10, global = 2.48032e-22, cumulative = 1.55899e-21
[OGL LOG][Proc: 0]global_index_init: 0.049 [ms]
[OGL LOG][Proc: 0]global_index_init: 0.003 [ms]
[OGL LOG][Proc: 0]update_host_matrix_data: 57.638 [ms]
[OGL LOG][Proc: 0]gather_global_matrix: 0 [ms]
[OGL LOG][Proc: 0]generate_distributed_matrix: 22.829 [ms]
[OGL LOG][Proc: 0]init_precond: 0.05 [ms]
[OGL LOG][Proc: 0]generate_solver: 0.004 [ms]
[OGL LOG][Proc: 0]solve: 1456.61 [ms]
[OGL LOG][Proc: 0]copy_x_back: 2.736 [ms]
[OGL LOG][lduLduBase.H:380] 
Statistics:
	Time per iteration: 1021 [mu s]
	Time per iteration and DOF: 0.127625 [ns]
	Retrieve results bandwith 2.923000 [GByte/s]
nonehipGKOCG:  Solving for p, Initial residual = 0.00921263, Final residual = 4.72694e-05, No Iterations 1426
linear solve p 1549225
time step continuity errors : sum local = 3.14027e-10, global = 5.91675e-23, cumulative = 1.61816e-21
ExecutionTime = 97.14 s  ClockTime = 98 s

Time = 0.0007

Courant Number mean: 0.00591029 max: 0.09375
DILUPBiCGStab:  Solving for Ux, Initial residual = 0.0120287, Final residual = 1.09576e-06, No Iterations 5
DILUPBiCGStab:  Solving for Uy, Initial residual = 0.0175963, Final residual = 8.90271e-07, No Iterations 5
DILUPBiCGStab:  Solving for Uz, Initial residual = 0.0327356, Final residual = 1.32151e-06, No Iterations 5
linear solve U 863116
[OGL LOG][Proc: 0]global_index_init: 0.192 [ms]
[OGL LOG][Proc: 0]global_index_init: 0.002 [ms]
[OGL LOG][Proc: 0]update_host_matrix_data: 58.092 [ms]
[OGL LOG][Proc: 0]gather_global_matrix: 0 [ms]
[OGL LOG][Proc: 0]generate_distributed_matrix: 22.558 [ms]
[OGL LOG][Proc: 0]init_precond: 0.058 [ms]
[OGL LOG][Proc: 0]generate_solver: 0.005 [ms]
[OGL LOG][Proc: 0]solve: 1464.35 [ms]
[OGL LOG][Proc: 0]copy_x_back: 2.795 [ms]
[OGL LOG][lduLduBase.H:380] 
Statistics:
	Time per iteration: 1026 [mu s]
	Time per iteration and DOF: 0.128250 [ns]
	Retrieve results bandwith 2.862000 [GByte/s]
nonehipGKOCG:  Solving for p, Initial residual = 0.00914308, Final residual = 5.09182e-05, No Iterations 1426
linear solve p 1556855
time step continuity errors : sum local = 3.38441e-10, global = 4.40191e-22, cumulative = 2.05835e-21
[OGL LOG][Proc: 0]global_index_init: 0.072 [ms]
[OGL LOG][Proc: 0]global_index_init: 0.003 [ms]
[OGL LOG][Proc: 0]update_host_matrix_data: 58.309 [ms]
[OGL LOG][Proc: 0]gather_global_matrix: 0 [ms]
[OGL LOG][Proc: 0]generate_distributed_matrix: 23.247 [ms]
[OGL LOG][Proc: 0]init_precond: 0.058 [ms]
[OGL LOG][Proc: 0]generate_solver: 0.004 [ms]
[OGL LOG][Proc: 0]solve: 1457.48 [ms]
[OGL LOG][Proc: 0]copy_x_back: 2.741 [ms]
[OGL LOG][lduLduBase.H:380] 
Statistics:
	Time per iteration: 1022 [mu s]
	Time per iteration and DOF: 0.127750 [ns]
	Retrieve results bandwith 2.918000 [GByte/s]
nonehipGKOCG:  Solving for p, Initial residual = 0.00826232, Final residual = 4.04114e-05, No Iterations 1426
linear solve p 1569980
time step continuity errors : sum local = 2.68797e-10, global = 1.28749e-23, cumulative = 2.07123e-21
ExecutionTime = 101.59 s  ClockTime = 103 s

Time = 0.00075

Courant Number mean: 0.00609757 max: 0.0939689
DILUPBiCGStab:  Solving for Ux, Initial residual = 0.011182, Final residual = 1.00059e-06, No Iterations 5
DILUPBiCGStab:  Solving for Uy, Initial residual = 0.0162718, Final residual = 7.98011e-07, No Iterations 5
DILUPBiCGStab:  Solving for Uz, Initial residual = 0.0305071, Final residual = 1.23224e-06, No Iterations 5
linear solve U 858482
[OGL LOG][Proc: 0]global_index_init: 0.218 [ms]
[OGL LOG][Proc: 0]global_index_init: 0.002 [ms]
[OGL LOG][Proc: 0]update_host_matrix_data: 57.797 [ms]
[OGL LOG][Proc: 0]gather_global_matrix: 0 [ms]
[OGL LOG][Proc: 0]generate_distributed_matrix: 22.892 [ms]
[OGL LOG][Proc: 0]init_precond: 0.051 [ms]
[OGL LOG][Proc: 0]generate_solver: 0.004 [ms]
[OGL LOG][Proc: 0]solve: 1464.08 [ms]
[OGL LOG][Proc: 0]copy_x_back: 2.74 [ms]
[OGL LOG][lduLduBase.H:380] 
Statistics:
	Time per iteration: 1026 [mu s]
	Time per iteration and DOF: 0.128250 [ns]
	Retrieve results bandwith 2.919000 [GByte/s]
nonehipGKOCG:  Solving for p, Initial residual = 0.00825777, Final residual = 4.46343e-05, No Iterations 1426
linear solve p 1556717
time step continuity errors : sum local = 2.97029e-10, global = 2.03257e-22, cumulative = 2.27448e-21
[OGL LOG][Proc: 0]global_index_init: 0.068 [ms]
[OGL LOG][Proc: 0]global_index_init: 0.003 [ms]
[OGL LOG][Proc: 0]update_host_matrix_data: 57.996 [ms]
[OGL LOG][Proc: 0]gather_global_matrix: 0 [ms]
[OGL LOG][Proc: 0]generate_distributed_matrix: 22.512 [ms]
[OGL LOG][Proc: 0]init_precond: 0.054 [ms]
[OGL LOG][Proc: 0]generate_solver: 0.004 [ms]
[OGL LOG][Proc: 0]solve: 1416.25 [ms]
[OGL LOG][Proc: 0]copy_x_back: 2.813 [ms]
[OGL LOG][lduLduBase.H:380] 
Statistics:
	Time per iteration: 1034 [mu s]
	Time per iteration and DOF: 0.129250 [ns]
	Retrieve results bandwith 2.843000 [GByte/s]
nonehipGKOCG:  Solving for p, Initial residual = 0.00747191, Final residual = 9.53429e-05, No Iterations 1369
linear solve p 1508441
time step continuity errors : sum local = 6.34947e-10, global = -8.78055e-24, cumulative = 2.2657e-21
ExecutionTime = 105.97 s  ClockTime = 107 s

Time = 0.0008

Courant Number mean: 0.00627534 max: 0.0941642
DILUPBiCGStab:  Solving for Ux, Initial residual = 0.0104455, Final residual = 9.18008e-07, No Iterations 5
DILUPBiCGStab:  Solving for Uy, Initial residual = 0.0151282, Final residual = 7.20885e-07, No Iterations 5
DILUPBiCGStab:  Solving for Uz, Initial residual = 0.0285271, Final residual = 1.16422e-06, No Iterations 5
linear solve U 858019
[OGL LOG][Proc: 0]global_index_init: 0.228 [ms]
[OGL LOG][Proc: 0]global_index_init: 0.002 [ms]
[OGL LOG][Proc: 0]update_host_matrix_data: 57.607 [ms]
[OGL LOG][Proc: 0]gather_global_matrix: 0 [ms]
[OGL LOG][Proc: 0]generate_distributed_matrix: 22.769 [ms]
[OGL LOG][Proc: 0]init_precond: 0.053 [ms]
[OGL LOG][Proc: 0]generate_solver: 0.003 [ms]
[OGL LOG][Proc: 0]solve: 1439.31 [ms]
[OGL LOG][Proc: 0]copy_x_back: 2.745 [ms]
[OGL LOG][lduLduBase.H:380] 
Statistics:
	Time per iteration: 1024 [mu s]
	Time per iteration and DOF: 0.128000 [ns]
	Retrieve results bandwith 2.914000 [GByte/s]
nonehipGKOCG:  Solving for p, Initial residual = 0.00763714, Final residual = 3.59381e-05, No Iterations 1405
linear solve p 1532584
time step continuity errors : sum local = 2.3946e-10, global = -1.15647e-22, cumulative = 2.15005e-21
[OGL LOG][Proc: 0]global_index_init: 0.047 [ms]
[OGL LOG][Proc: 0]global_index_init: 0.002 [ms]
[OGL LOG][Proc: 0]update_host_matrix_data: 57.696 [ms]
[OGL LOG][Proc: 0]gather_global_matrix: 0 [ms]
[OGL LOG][Proc: 0]generate_distributed_matrix: 22.41 [ms]
[OGL LOG][Proc: 0]init_precond: 0.052 [ms]
[OGL LOG][Proc: 0]generate_solver: 0.005 [ms]
[OGL LOG][Proc: 0]solve: 1445.04 [ms]
[OGL LOG][Proc: 0]copy_x_back: 2.828 [ms]
[OGL LOG][lduLduBase.H:380] 
Statistics:
	Time per iteration: 1031 [mu s]
	Time per iteration and DOF: 0.128875 [ns]
	Retrieve results bandwith 2.828000 [GByte/s]
nonehipGKOCG:  Solving for p, Initial residual = 0.00688584, Final residual = 3.30143e-05, No Iterations 1401
linear solve p 1537368
time step continuity errors : sum local = 2.20098e-10, global = -5.03423e-23, cumulative = 2.09971e-21
ExecutionTime = 110.33 s  ClockTime = 112 s

Time = 0.00085

Courant Number mean: 0.0064451 max: 0.0943398
DILUPBiCGStab:  Solving for Ux, Initial residual = 0.00979761, Final residual = 8.45544e-07, No Iterations 5
DILUPBiCGStab:  Solving for Uy, Initial residual = 0.0141303, Final residual = 6.5593e-07, No Iterations 5
DILUPBiCGStab:  Solving for Uz, Initial residual = 0.0267992, Final residual = 1.1087e-06, No Iterations 5
linear solve U 857314
[OGL LOG][Proc: 0]global_index_init: 0.245 [ms]
[OGL LOG][Proc: 0]global_index_init: 0.003 [ms]
[OGL LOG][Proc: 0]update_host_matrix_data: 57.731 [ms]
[OGL LOG][Proc: 0]gather_global_matrix: 0 [ms]
[OGL LOG][Proc: 0]generate_distributed_matrix: 22.852 [ms]
[OGL LOG][Proc: 0]init_precond: 0.055 [ms]
[OGL LOG][Proc: 0]generate_solver: 0.005 [ms]
[OGL LOG][Proc: 0]solve: 1444.65 [ms]
[OGL LOG][Proc: 0]copy_x_back: 2.781 [ms]
[OGL LOG][lduLduBase.H:380] 
Statistics:
	Time per iteration: 1031 [mu s]
[...]
[OGL LOG][Proc: 0]global_index_init: 0.002 [ms]
[OGL LOG][Proc: 0]update_host_matrix_data: 394.747 [ms]
[OGL LOG][Proc: 0]gather_global_matrix: 0 [ms]
[OGL LOG][Proc: 0]generate_distributed_matrix: 141.153 [ms]
[OGL LOG][Proc: 0]init_precond: 0.061 [ms]
[OGL LOG][Proc: 0]generate_solver: 0.004 [ms]
[OGL LOG][Proc: 0]solve: 44558.6 [ms]
[OGL LOG][Proc: 0]copy_x_back: 26.842 [ms]
[OGL LOG][lduLduBase.H:380] 
Statistics:
	Time per iteration: 15099 [mu s]
	Time per iteration and DOF: 0.235922 [ns]
	Retrieve results bandwith 2.384000 [GByte/s]
nonehipGKOCG:  Solving for p, Initial residual = 0.0224717, Final residual = 6.81623e-05, No Iterations 2951
linear solve p 45204290
time step continuity errors : sum local = 1.19083e-10, global = 6.02473e-23, cumulative = -3.50541e-22
ExecutionTime = 2186.19 s  ClockTime = 2194 s

Time = 0.0003

Courant Number mean: 0.00411384 max: 0.0953249
DILUPBiCGStab:  Solving for Ux, Initial residual = 0.0131673, Final residual = 9.29399e-06, No Iterations 5
DILUPBiCGStab:  Solving for Uy, Initial residual = 0.0215671, Final residual = 6.15708e-06, No Iterations 5
DILUPBiCGStab:  Solving for Uz, Initial residual = 0.0388145, Final residual = 2.1035e-05, No Iterations 5
linear solve U 7023470
[OGL LOG][Proc: 0]global_index_init: 0.424 [ms]
[OGL LOG][Proc: 0]global_index_init: 0.002 [ms]
[OGL LOG][Proc: 0]update_host_matrix_data: 399.827 [ms]
[OGL LOG][Proc: 0]gather_global_matrix: 0 [ms]
[OGL LOG][Proc: 0]generate_distributed_matrix: 142.139 [ms]
[OGL LOG][Proc: 0]init_precond: 0.065 [ms]
[OGL LOG][Proc: 0]generate_solver: 0.004 [ms]
[OGL LOG][Proc: 0]solve: 44645.9 [ms]
[OGL LOG][Proc: 0]copy_x_back: 27.115 [ms]
[OGL LOG][lduLduBase.H:380] 
Statistics:
	Time per iteration: 15129 [mu s]
	Time per iteration and DOF: 0.236391 [ns]
	Retrieve results bandwith 2.360000 [GByte/s]
nonehipGKOCG:  Solving for p, Initial residual = 0.0198582, Final residual = 5.51982e-05, No Iterations 2951
linear solve p 45304258
time step continuity errors : sum local = 9.63286e-11, global = 1.78707e-23, cumulative = -3.3267e-22
[OGL LOG][Proc: 0]global_index_init: 0.613 [ms]
[OGL LOG][Proc: 0]global_index_init: 0.003 [ms]
[OGL LOG][Proc: 0]update_host_matrix_data: 379.06 [ms]
[OGL LOG][Proc: 0]gather_global_matrix: 0 [ms]
[OGL LOG][Proc: 0]generate_distributed_matrix: 140.872 [ms]
[OGL LOG][Proc: 0]init_precond: 0.056 [ms]
[OGL LOG][Proc: 0]generate_solver: 0.005 [ms]
[OGL LOG][Proc: 0]solve: 44566.3 [ms]
[OGL LOG][Proc: 0]copy_x_back: 26.682 [ms]
[OGL LOG][lduLduBase.H:380] 
Statistics:
	Time per iteration: 15102 [mu s]
	Time per iteration and DOF: 0.235969 [ns]
	Retrieve results bandwith 2.398000 [GByte/s]
nonehipGKOCG:  Solving for p, Initial residual = 0.0183516, Final residual = 4.99313e-05, No Iterations 2951
linear solve p 45219003
time step continuity errors : sum local = 8.71929e-11, global = -1.96569e-22, cumulative = -5.29239e-22
ExecutionTime = 2287.86 s  ClockTime = 2297 s

Time = 0.000325

Courant Number mean: 0.0042771 max: 0.0955252
DILUPBiCGStab:  Solving for Ux, Initial residual = 0.0121548, Final residual = 7.88784e-06, No Iterations 5
DILUPBiCGStab:  Solving for Uy, Initial residual = 0.0196994, Final residual = 5.64366e-06, No Iterations 5
DILUPBiCGStab:  Solving for Uz, Initial residual = 0.0360281, Final residual = 1.75034e-05, No Iterations 5
linear solve U 7066424
[OGL LOG][Proc: 0]global_index_init: 0.415 [ms]
[OGL LOG][Proc: 0]global_index_init: 0.002 [ms]
[OGL LOG][Proc: 0]update_host_matrix_data: 398.426 [ms]
[OGL LOG][Proc: 0]gather_global_matrix: 0 [ms]
[OGL LOG][Proc: 0]generate_distributed_matrix: 142.379 [ms]
[OGL LOG][Proc: 0]init_precond: 0.06 [ms]
[OGL LOG][Proc: 0]generate_solver: 0.004 [ms]
[OGL LOG][Proc: 0]solve: 44494.3 [ms]
[OGL LOG][Proc: 0]copy_x_back: 26.78 [ms]
[OGL LOG][lduLduBase.H:380] 
Statistics:
	Time per iteration: 15077 [mu s]
	Time per iteration and DOF: 0.235578 [ns]
	Retrieve results bandwith 2.389000 [GByte/s]
nonehipGKOCG:  Solving for p, Initial residual = 0.0171774, Final residual = 5.97182e-05, No Iterations 2951
linear solve p 45152946
time step continuity errors : sum local = 1.04129e-10, global = -4.61476e-24, cumulative = -5.33853e-22
[OGL LOG][Proc: 0]global_index_init: 0.698 [ms]
[OGL LOG][Proc: 0]global_index_init: 0.004 [ms]
[OGL LOG][Proc: 0]update_host_matrix_data: 390.747 [ms]
[OGL LOG][Proc: 0]gather_global_matrix: 0 [ms]
[OGL LOG][Proc: 0]generate_distributed_matrix: 140.996 [ms]
[OGL LOG][Proc: 0]init_precond: 0.059 [ms]
[OGL LOG][Proc: 0]generate_solver: 0.005 [ms]
[OGL LOG][Proc: 0]solve: 44466.6 [ms]
[OGL LOG][Proc: 0]copy_x_back: 26.844 [ms]
[OGL LOG][lduLduBase.H:380] 
Statistics:
	Time per iteration: 15068 [mu s]
	Time per iteration and DOF: 0.235437 [ns]
	Retrieve results bandwith 2.384000 [GByte/s]
nonehipGKOCG:  Solving for p, Initial residual = 0.0159828, Final residual = 5.25679e-05, No Iterations 2951
linear solve p 45113687
time step continuity errors : sum local = 9.16987e-11, global = -3.07196e-23, cumulative = -5.64573e-22
ExecutionTime = 2389.34 s  ClockTime = 2398 s

Time = 0.00035

Courant Number mean: 0.00443178 max: 0.0957003
DILUPBiCGStab:  Solving for Ux, Initial residual = 0.0112902, Final residual = 6.80299e-06, No Iterations 5
DILUPBiCGStab:  Solving for Uy, Initial residual = 0.0181229, Final residual = 5.0342e-06, No Iterations 5
DILUPBiCGStab:  Solving for Uz, Initial residual = 0.033348, Final residual = 1.47338e-05, No Iterations 5
linear solve U 6950979
[OGL LOG][Proc: 0]global_index_init: 0.495 [ms]
[OGL LOG][Proc: 0]global_index_init: 0.002 [ms]
[OGL LOG][Proc: 0]update_host_matrix_data: 407.917 [ms]
[OGL LOG][Proc: 0]gather_global_matrix: 0.001 [ms]
[OGL LOG][Proc: 0]generate_distributed_matrix: 150.248 [ms]
[OGL LOG][Proc: 0]init_precond: 0.059 [ms]
[OGL LOG][Proc: 0]generate_solver: 0.004 [ms]
[OGL LOG][Proc: 0]solve: 44630.5 [ms]
[OGL LOG][Proc: 0]copy_x_back: 26.883 [ms]
[OGL LOG][lduLduBase.H:380] 
Statistics:
	Time per iteration: 15123 [mu s]
	Time per iteration and DOF: 0.236297 [ns]
	Retrieve results bandwith 2.380000 [GByte/s]
nonehipGKOCG:  Solving for p, Initial residual = 0.014851, Final residual = 4.93564e-05, No Iterations 2951
linear solve p 45298144
time step continuity errors : sum local = 8.60985e-11, global = 5.8402e-23, cumulative = -5.06171e-22
[OGL LOG][Proc: 0]global_index_init: 0.387 [ms]
[OGL LOG][Proc: 0]global_index_init: 0.004 [ms]
[OGL LOG][Proc: 0]update_host_matrix_data: 398.239 [ms]
[OGL LOG][Proc: 0]gather_global_matrix: 0 [ms]
[OGL LOG][Proc: 0]generate_distributed_matrix: 141.535 [ms]
[OGL LOG][Proc: 0]init_precond: 0.06 [ms]
[OGL LOG][Proc: 0]generate_solver: 0.005 [ms]
[OGL LOG][Proc: 0]solve: 44744.3 [ms]
[OGL LOG][Proc: 0]copy_x_back: 26.749 [ms]
[OGL LOG][lduLduBase.H:380] 
Statistics:
	Time per iteration: 15162 [mu s]
	Time per iteration and DOF: 0.236906 [ns]
	Retrieve results bandwith 2.392000 [GByte/s]
nonehipGKOCG:  Solving for p, Initial residual = 0.0139904, Final residual = 4.33796e-05, No Iterations 2951
linear solve p 45426428
time step continuity errors : sum local = 7.57096e-11, global = 4.61331e-23, cumulative = -4.60038e-22
ExecutionTime = 2491.16 s  ClockTime = 2501 s

Time = 0.000375

Courant Number mean: 0.00457887 max: 0.0958552
DILUPBiCGStab:  Solving for Ux, Initial residual = 0.0105419, Final residual = 5.94784e-06, No Iterations 5
DILUPBiCGStab:  Solving for Uy, Initial residual = 0.0167779, Final residual = 4.60594e-06, No Iterations 5
DILUPBiCGStab:  Solving for Uz, Initial residual = 0.0311096, Final residual = 1.25998e-05, No Iterations 5
linear solve U 6906214
[OGL LOG][Proc: 0]global_index_init: 0.377 [ms]
[OGL LOG][Proc: 0]global_index_init: 0.002 [ms]
[OGL LOG][Proc: 0]update_host_matrix_data: 410.483 [ms]
[OGL LOG][Proc: 0]gather_global_matrix: 0 [ms]
[OGL LOG][Proc: 0]generate_distributed_matrix: 142.767 [ms]
[OGL LOG][Proc: 0]init_precond: 0.057 [ms]
[OGL LOG][Proc: 0]generate_solver: 0.004 [ms]
[OGL LOG][Proc: 0]solve: 44553 [ms]
[OGL LOG][Proc: 0]copy_x_back: 26.997 [ms]
[OGL LOG][lduLduBase.H:380] 
Statistics:
	Time per iteration: 15097 [mu s]
	Time per iteration and DOF: 0.235891 [ns]
	Retrieve results bandwith 2.370000 [GByte/s]
nonehipGKOCG:  Solving for p, Initial residual = 0.0131943, Final residual = 4.15727e-05, No Iterations 2951
linear solve p 45214254
time step continuity errors : sum local = 7.25042e-11, global = -5.19881e-24, cumulative = -4.65237e-22
[OGL LOG][Proc: 0]global_index_init: 0.557 [ms]
[OGL LOG][Proc: 0]global_index_init: 0.003 [ms]
[OGL LOG][Proc: 0]update_host_matrix_data: 390.386 [ms]
[OGL LOG][Proc: 0]gather_global_matrix: 0 [ms]
[OGL LOG][Proc: 0]generate_distributed_matrix: 141.819 [ms]
[OGL LOG][Proc: 0]init_precond: 0.061 [ms]
[OGL LOG][Proc: 0]generate_solver: 0.004 [ms]
[OGL LOG][Proc: 0]solve: 44533 [ms]
[OGL LOG][Proc: 0]copy_x_back: 27.083 [ms]
[OGL LOG][lduLduBase.H:380] 
Statistics:
	Time per iteration: 15090 [mu s]
	Time per iteration and DOF: 0.235781 [ns]
	Retrieve results bandwith 2.363000 [GByte/s]
nonehipGKOCG:  Solving for p, Initial residual = 0.0124847, Final residual = 3.66445e-05, No Iterations 2951
linear solve p 45180572
time step continuity errors : sum local = 6.39327e-11, global = 2.30393e-23, cumulative = -4.42198e-22
ExecutionTime = 2592.62 s  ClockTime = 2603 s

Time = 0.0004

Courant Number mean: 0.00471935 max: 0.0959934
DILUPBiCGStab:  Solving for Ux, Initial residual = 0.00988793, Final residual = 5.26919e-06, No Iterations 5
DILUPBiCGStab:  Solving for Uy, Initial residual = 0.0156147, Final residual = 4.19869e-06, No Iterations 5
DILUPBiCGStab:  Solving for Uz, Initial residual = 0.0292051, Final residual = 1.09034e-05, No Iterations 5
linear solve U 7041849
[OGL LOG][Proc: 0]global_index_init: 0.27 [ms]
[OGL LOG][Proc: 0]global_index_init: 0.002 [ms]
[OGL LOG][Proc: 0]update_host_matrix_data: 384.744 [ms]
[OGL LOG][Proc: 0]gather_global_matrix: 0 [ms]
[OGL LOG][Proc: 0]generate_distributed_matrix: 141.694 [ms]
[OGL LOG][Proc: 0]init_precond: 0.055 [ms]
[OGL LOG][Proc: 0]generate_solver: 0.004 [ms]
[OGL LOG][Proc: 0]solve: 44654.7 [ms]
[OGL LOG][Proc: 0]copy_x_back: 26.69 [ms]
[OGL LOG][lduLduBase.H:380] 
Statistics:
	Time per iteration: 15132 [mu s]
	Time per iteration and DOF: 0.236437 [ns]
	Retrieve results bandwith 2.397000 [GByte/s]
nonehipGKOCG:  Solving for p, Initial residual = 0.0118911, Final residual = 3.80337e-05, No Iterations 2951
linear solve p 45306434
time step continuity errors : sum local = 6.63642e-11, global = -7.20386e-23, cumulative = -5.14236e-22
[OGL LOG][Proc: 0]global_index_init: 0.553 [ms]
[OGL LOG][Proc: 0]global_index_init: 0.003 [ms]
[OGL LOG][Proc: 0]update_host_matrix_data: 409.682 [ms]
[OGL LOG][Proc: 0]gather_global_matrix: 0 [ms]
[OGL LOG][Proc: 0]generate_distributed_matrix: 141.236 [ms]
[OGL LOG][Proc: 0]init_precond: 0.058 [ms]
[OGL LOG][Proc: 0]generate_solver: 0.004 [ms]
[OGL LOG][Proc: 0]solve: 44695 [ms]
[OGL LOG][Proc: 0]copy_x_back: 27.282 [ms]
[OGL LOG][lduLduBase.H:380] 
Statistics:
	Time per iteration: 15145 [mu s]
	Time per iteration and DOF: 0.236641 [ns]
	Retrieve results bandwith 2.345000 [GByte/s]
nonehipGKOCG:  Solving for p, Initial residual = 0.0113171, Final residual = 3.25067e-05, No Iterations 2951
linear solve p 45337690
time step continuity errors : sum local = 5.67426e-11, global = -1.27297e-22, cumulative = -6.41533e-22
ExecutionTime = 2694.48 s  ClockTime = 2705 s

Time = 0.000425

Courant Number mean: 0.00485373 max: 0.0961178
DILUPBiCGStab:  Solving for Ux, Initial residual = 0.00931079, Final residual = 4.72259e-06, No Iterations 5
DILUPBiCGStab:  Solving for Uy, Initial residual = 0.0146002, Final residual = 3.86773e-06, No Iterations 5
DILUPBiCGStab:  Solving for Uz, Initial residual = 0.027465, Final residual = 9.51717e-06, No Iterations 5
linear solve U 7028122
[OGL LOG][Proc: 0]global_index_init: 0.443 [ms]
[OGL LOG][Proc: 0]global_index_init: 0.002 [ms]
[OGL LOG][Proc: 0]update_host_matrix_data: 405.991 [ms]
[OGL LOG][Proc: 0]gather_global_matrix: 0 [ms]
[OGL LOG][Proc: 0]generate_distributed_matrix: 142.167 [ms]
[OGL LOG][Proc: 0]init_precond: 0.059 [ms]
[OGL LOG][Proc: 0]generate_solver: 0.005 [ms]
[OGL LOG][Proc: 0]solve: 44527.6 [ms]
[OGL LOG][Proc: 0]copy_x_back: 27.623 [ms]
[OGL LOG][lduLduBase.H:380] 
Statistics:
	Time per iteration: 15088 [mu s]
	Time per iteration and DOF: 0.235750 [ns]
	Retrieve results bandwith 2.316000 [GByte/s]
nonehipGKOCG:  Solving for p, Initial residual = 0.0108212, Final residual = 3.52731e-05, No Iterations 2951
linear solve p 45196127
time step continuity errors : sum local = 6.15557e-11, global = -7.04337e-23, cumulative = -7.11967e-22
[OGL LOG][Proc: 0]global_index_init: 0.51 [ms]
[OGL LOG][Proc: 0]global_index_init: 0.003 [ms]
[OGL LOG][Proc: 0]update_host_matrix_data: 405.288 [ms]
[OGL LOG][Proc: 0]gather_global_matrix: 0 [ms]
[OGL LOG][Proc: 0]generate_distributed_matrix: 140.841 [ms]
[OGL LOG][Proc: 0]init_precond: 0.053 [ms]
[OGL LOG][Proc: 0]generate_solver: 0.004 [ms]
[OGL LOG][Proc: 0]solve: 44590.1 [ms]
[OGL LOG][Proc: 0]copy_x_back: 27.149 [ms]
[OGL LOG][lduLduBase.H:380] 
Statistics:
	Time per iteration: 15110 [mu s]
	Time per iteration and DOF: 0.236094 [ns]
	Retrieve results bandwith 2.357000 [GByte/s]
nonehipGKOCG:  Solving for p, Initial residual = 0.0103327, Final residual = 2.96584e-05, No Iterations 2951
linear solve p 45233481
time step continuity errors : sum local = 5.17741e-11, global = -5.09781e-23, cumulative = -7.62945e-22
ExecutionTime = 2796.06 s  ClockTime = 2807 s

Time = 0.00045

Courant Number mean: 0.00498275 max: 0.0962305
DILUPBiCGStab:  Solving for Ux, Initial residual = 0.00879777, Final residual = 4.28065e-06, No Iterations 5
DILUPBiCGStab:  Solving for Uy, Initial residual = 0.0137067, Final residual = 3.57562e-06, No Iterations 5
DILUPBiCGStab:  Solving for Uz, Initial residual = 0.0259328, Final residual = 8.38514e-06, No Iterations 5
linear solve U 7024795
[OGL LOG][Proc: 0]global_index_init: 0.323 [ms]
[OGL LOG][Proc: 0]global_index_init: 0.002 [ms]
[OGL LOG][Proc: 0]update_host_matrix_data: 409.083 [ms]
[OGL LOG][Proc: 0]gather_global_matrix: 0 [ms]
[OGL LOG][Proc: 0]generate_distributed_matrix: 142.234 [ms]
[OGL LOG][Proc: 0]init_precond: 0.06 [ms]
[OGL LOG][Proc: 0]generate_solver: 0.005 [ms]
[OGL LOG][Proc: 0]solve: 42933.6 [ms]
[OGL LOG][Proc: 0]copy_x_back: 26.809 [ms]
[OGL LOG][lduLduBase.H:380] 
Statistics:
	Time per iteration: 15154 [mu s]
	Time per iteration and DOF: 0.236781 [ns]
	Retrieve results bandwith 2.387000 [GByte/s]
nonehipGKOCG:  Solving for p, Initial residual = 0.00997028, Final residual = 9.94173e-05, No Iterations 2833
linear solve p 43593352
time step continuity errors : sum local = 1.73574e-10, global = 2.50344e-23, cumulative = -7.3791e-22
[OGL LOG][Proc: 0]global_index_init: 0.552 [ms]
[OGL LOG][Proc: 0]global_index_init: 0.003 [ms]
[OGL LOG][Proc: 0]update_host_matrix_data: 406.6 [ms]
[OGL LOG][Proc: 0]gather_global_matrix: 0 [ms]
[OGL LOG][Proc: 0]generate_distributed_matrix: 141.309 [ms]
[OGL LOG][Proc: 0]init_precond: 0.056 [ms]
[OGL LOG][Proc: 0]generate_solver: 0.004 [ms]
[OGL LOG][Proc: 0]solve: 42877.9 [ms]
[OGL LOG][Proc: 0]copy_x_back: 27.591 [ms]
[OGL LOG][lduLduBase.H:380] 
Statistics:
	Time per iteration: 15172 [mu s]
	Time per iteration and DOF: 0.237063 [ns]
	Retrieve results bandwith 2.319000 [GByte/s]
nonehipGKOCG:  Solving for p, Initial residual = 0.00953969, Final residual = 8.82348e-05, No Iterations 2826
linear solve p 43522744
time step continuity errors : sum local = 1.54104e-10, global = -3.52713e-23, cumulative = -7.73182e-22
ExecutionTime = 2894.39 s  ClockTime = 2906 s

Time = 0.000475

Courant Number mean: 0.00510677 max: 0.0963332
DILUPBiCGStab:  Solving for Ux, Initial residual = 0.00833845, Final residual = 3.91831e-06, No Iterations 5
DILUPBiCGStab:  Solving for Uy, Initial residual = 0.0129145, Final residual = 3.32824e-06, No Iterations 5
DILUPBiCGStab:  Solving for Uz, Initial residual = 0.0244635, Final residual = 7.45846e-06, No Iterations 5
linear solve U 6940698
[OGL LOG][Proc: 0]global_index_init: 2.94 [ms]
[OGL LOG][Proc: 0]global_index_init: 0.003 [ms]
[OGL LOG][Proc: 0]update_host_matrix_data: 403.388 [ms]
[OGL LOG][Proc: 0]gather_global_matrix: 0 [ms]
[OGL LOG][Proc: 0]generate_distributed_matrix: 141.305 [ms]
[OGL LOG][Proc: 0]init_precond: 0.058 [ms]
[OGL LOG][Proc: 0]generate_solver: 0.005 [ms]
[OGL LOG][Proc: 0]solve: 34344.6 [ms]
[OGL LOG][Proc: 0]copy_x_back: 26.622 [ms]
[OGL LOG][lduLduBase.H:380] 
Statistics:
	Time per iteration: 15190 [mu s]
	Time per iteration and DOF: 0.237344 [ns]
	Retrieve results bandwith 2.404000 [GByte/s]
nonehipGKOCG:  Solving for p, Initial residual = 0.00967093, Final residual = 6.61271e-05, No Iterations 2261
linear solve p 35013125
time step continuity errors : sum local = 1.16346e-10, global = 6.44621e-23, cumulative = -7.0872e-22
[OGL LOG][Proc: 0]global_index_init: 0.585 [ms]
[OGL LOG][Proc: 0]global_index_init: 0.003 [ms]
[OGL LOG][Proc: 0]update_host_matrix_data: 401.18 [ms]
[OGL LOG][Proc: 0]gather_global_matrix: 0 [ms]
[OGL LOG][Proc: 0]generate_distributed_matrix: 146.612 [ms]
[OGL LOG][Proc: 0]init_precond: 0.055 [ms]
[OGL LOG][Proc: 0]generate_solver: 0.005 [ms]
[OGL LOG][Proc: 0]solve: 28952.6 [ms]
[OGL LOG][Proc: 0]copy_x_back: 27.639 [ms]
[OGL LOG][lduLduBase.H:380] 
Statistics:
	Time per iteration: 15310 [mu s]
	Time per iteration and DOF: 0.239219 [ns]
	Retrieve results bandwith 2.315000 [GByte/s]
nonehipGKOCG:  Solving for p, Initial residual = 0.00925012, Final residual = 1.84398e-06, No Iterations 1891
linear solve p 29621552
time step continuity errors : sum local = 3.45029e-12, global = -1.26203e-22, cumulative = -8.34923e-22
ExecutionTime = 2970.22 s  ClockTime = 2982 s

Time = 0.0005

Courant Number mean: 0.00522636 max: 0.0964273
DILUPBiCGStab:  Solving for Ux, Initial residual = 0.00792467, Final residual = 3.61641e-06, No Iterations 5
DILUPBiCGStab:  Solving for Uy, Initial residual = 0.0122074, Final residual = 3.11629e-06, No Iterations 5
DILUPBiCGStab:  Solving for Uz, Initial residual = 0.0234329, Final residual = 6.83715e-06, No Iterations 5
linear solve U 6928524
[OGL LOG][Proc: 0]global_index_init: 0.456 [ms]
[OGL LOG][Proc: 0]global_index_init: 0.002 [ms]
[OGL LOG][Proc: 0]update_host_matrix_data: 402.615 [ms]
[OGL LOG][Proc: 0]gather_global_matrix: 0 [ms]
[OGL LOG][Proc: 0]generate_distributed_matrix: 149.277 [ms]
[OGL LOG][Proc: 0]init_precond: 0.065 [ms]
[OGL LOG][Proc: 0]generate_solver: 0.004 [ms]
[OGL LOG][Proc: 0]solve: 24353.4 [ms]
[OGL LOG][Proc: 0]copy_x_back: 26.848 [ms]
[OGL LOG][lduLduBase.H:380] 
Statistics:
	Time per iteration: 15452 [mu s]
	Time per iteration and DOF: 0.241437 [ns]
	Retrieve results bandwith 2.383000 [GByte/s]
nonehipGKOCG:  Solving for p, Initial residual = 0.00868617, Final residual = 6.91531e-06, No Iterations 1576
linear solve p 25004327
time step continuity errors : sum local = 1.2218e-11, global = -2.16425e-23, cumulative = -8.56565e-22
[OGL LOG][Proc: 0]global_index_init: 0.565 [ms]
[OGL LOG][Proc: 0]global_index_init: 0.003 [ms]
[OGL LOG][Proc: 0]update_host_matrix_data: 400.644 [ms]
[OGL LOG][Proc: 0]gather_global_matrix: 0 [ms]
[OGL LOG][Proc: 0]generate_distributed_matrix: 140.817 [ms]
[OGL LOG][Proc: 0]init_precond: 0.057 [ms]
[OGL LOG][Proc: 0]generate_solver: 0.004 [ms]
[OGL LOG][Proc: 0]solve: 19711 [ms]
[OGL LOG][Proc: 0]copy_x_back: 27.36 [ms]
[OGL LOG][lduLduBase.H:380] 
Statistics:
	Time per iteration: 15631 [mu s]
	Time per iteration and DOF: 0.244234 [ns]
	Retrieve results bandwith 2.339000 [GByte/s]
nonehipGKOCG:  Solving for p, Initial residual = 0.00831633, Final residual = 2.58694e-05, No Iterations 1261
linear solve p 20348766
time step continuity errors : sum local = 4.52679e-11, global = -1.73405e-23, cumulative = -8.73906e-22
ExecutionTime = 3026.84 s  ClockTime = 3039 s

End

Finalising parallel run
================================================================================
