hash: ee22a21cff783abeff7f5d996397ee72
/*---------------------------------------------------------------------------*\
| =========                 |                                                 |
| \\      /  F ield         | OpenFOAM: The Open Source CFD Toolbox           |
|  \\    /   O peration     | Version:  2112                                  |
|   \\  /    A nd           | Website:  www.openfoam.com                      |
|    \\/     M anipulation  |                                                 |
\*---------------------------------------------------------------------------*/
Build  : d44c8318f0-20220111 OPENFOAM=2112 version=v2112
Arch   : "LSB;label=32;scalar=64"
Exec   : icoFoam -parallel
Date   : Aug 05 2022
Time   : 13:49:49
Host   : hkn0327.localdomain
PID    : 2449005
I/O    : uncollated
Case   : /hkfs/work/workspace/scratch/eq4036-lidDrivenCavity/single_node/mesh/400/matrix_solver/CG_NoPrecond_PETSC_Default/mpiRank_of/76/base
nProcs : 76
Hosts  :
(
    (hkn0327.localdomain 76)
)
Pstream initialized with:
    floatTransfer      : 0
    nProcsSimpleSum    : 0
    commsType          : nonBlocking
    polling iterations : 0
trapFpe: Floating point exception trapping enabled (FOAM_SIGFPE).
fileModificationChecking : Monitoring run-time modified files using timeStampMaster (fileModificationSkew 5, maxFileModificationPolls 20)
allowSystemOperations : Allowing user-supplied system call operations

// * * * * * * * * * * * * * * * * * * * * * * * * * * * * * * * * * * * * * //
Create time

--> FOAM Warning : 
    From void* Foam::dlLibraryTable::openLibrary(const Foam::fileName&, bool)
    in file db/dynamicLibrary/dlLibraryTable/dlLibraryTable.C at line 188
    Could not load "libpetscFoam.so"
libcuda.so.1: cannot open shared object file: No such file or directory
Create mesh for time = 0


PISO: Operating solver in PISO mode

Reading transportProperties

Reading field p

Reading field U

Reading/calculating face flux field phi


Starting time loop

Time = 2.5e-05

Courant Number mean: 0 max: 0
DILUPBiCGStab:  Solving for Ux, Initial residual = 1, Final residual = 0.00226094, No Iterations 5
DILUPBiCGStab:  Solving for Uy:  solution singularity
DILUPBiCGStab:  Solving for Uz:  solution singularity
linear solve U 1598726
================================================================================
hash: 96ec14e362a72f34a8c2c2411f0b0be4
/*---------------------------------------------------------------------------*\
| =========                 |                                                 |
| \\      /  F ield         | OpenFOAM: The Open Source CFD Toolbox           |
|  \\    /   O peration     | Version:  2112                                  |
|   \\  /    A nd           | Website:  www.openfoam.com                      |
|    \\/     M anipulation  |                                                 |
\*---------------------------------------------------------------------------*/
Build  : d44c8318f0-20220111 OPENFOAM=2112 version=v2112
Arch   : "LSB;label=32;scalar=64"
Exec   : icoFoam -parallel
Date   : Aug 05 2022
Time   : 13:46:31
Host   : hkn0736.localdomain
PID    : 2612650
I/O    : uncollated
Case   : /hkfs/work/workspace/scratch/eq4036-lidDrivenCavity/single_node/mesh/400/matrix_solver/CG_NoPrecond_PETSC_CUDA/mpiRank_of/4/base
nProcs : 4
Hosts  :
(
    (hkn0736.localdomain 4)
)
Pstream initialized with:
    floatTransfer      : 0
    nProcsSimpleSum    : 0
    commsType          : nonBlocking
    polling iterations : 0
trapFpe: Floating point exception trapping enabled (FOAM_SIGFPE).
fileModificationChecking : Monitoring run-time modified files using timeStampMaster (fileModificationSkew 5, maxFileModificationPolls 20)
allowSystemOperations : Allowing user-supplied system call operations

// * * * * * * * * * * * * * * * * * * * * * * * * * * * * * * * * * * * * * //
Create time

Create mesh for time = 0


PISO: Operating solver in PISO mode

Reading transportProperties

Reading field p

Reading field U

Reading/calculating face flux field phi


Starting time loop

Time = 2.5e-05

Courant Number mean: 0 max: 0
DILUPBiCGStab:  Solving for Ux, Initial residual = 1, Final residual = 0.00118713, No Iterations 5
DILUPBiCGStab:  Solving for Uy:  solution singularity
DILUPBiCGStab:  Solving for Uz:  solution singularity
linear solve U 11116792
Initializing PETSc
PETSc-cg:  Solving for p, Initial residual = 1, Final residual = 9.99901e-05, No Iterations 3256
linear solve p 1328801989
time step continuity errors : sum local = 2.41072e-10, global = 3.19358e-23, cumulative = 3.19358e-23
PETSc-cg:  Solving for p, Initial residual = 0.716144, Final residual = 9.9313e-05, No Iterations 3237
linear solve p 1310686836
time step continuity errors : sum local = 3.23107e-10, global = -1.64624e-23, cumulative = 1.54734e-23
ExecutionTime = 2716.73 s  ClockTime = 2723 s

Time = 5e-05

Courant Number mean: 0.00116777 max: 0.0751289
DILUPBiCGStab:  Solving for Ux, Initial residual = 0.159858, Final residual = 0.000699206, No Iterations 5
DILUPBiCGStab:  Solving for Uy, Initial residual = 0.348607, Final residual = 0.000549935, No Iterations 5
DILUPBiCGStab:  Solving for Uz, Initial residual = 0.997103, Final residual = 0.00258441, No Iterations 5
linear solve U 22313776
PETSc-cg:  Solving for p, Initial residual = 0.6549, Final residual = 9.91606e-05, No Iterations 3180
linear solve p 1287569361
time step continuity errors : sum local = 3.48196e-10, global = 1.18995e-23, cumulative = 2.73729e-23
PETSc-cg:  Solving for p, Initial residual = 0.580434, Final residual = 9.89413e-05, No Iterations 3175
linear solve p 1285539427
time step continuity errors : sum local = 3.53414e-10, global = -9.57397e-25, cumulative = 2.64155e-23
ExecutionTime = 5322.28 s  ClockTime = 5335 s

Time = 7.5e-05

Courant Number mean: 0.00178106 max: 0.0870165
DILUPBiCGStab:  Solving for Ux, Initial residual = 0.0661404, Final residual = 0.000197637, No Iterations 5
DILUPBiCGStab:  Solving for Uy, Initial residual = 0.138167, Final residual = 0.000139212, No Iterations 5
DILUPBiCGStab:  Solving for Uz, Initial residual = 0.430577, Final residual = 0.00127506, No Iterations 5
linear solve U 22366872
PETSc-cg:  Solving for p, Initial residual = 0.55682, Final residual = 9.99619e-05, No Iterations 3133
linear solve p 1268546003
time step continuity errors : sum local = 2.52873e-10, global = -2.50318e-23, cumulative = 1.38365e-24
PETSc-cg:  Solving for p, Initial residual = 0.499731, Final residual = 9.99099e-05, No Iterations 3123
linear solve p 1264639491
time step continuity errors : sum local = 2.47515e-10, global = -1.00973e-23, cumulative = -8.71369e-24
ExecutionTime = 7888.05 s  ClockTime = 7907 s

Time = 0.0001

Courant Number mean: 0.00220834 max: 0.0903159
DILUPBiCGStab:  Solving for Ux, Initial residual = 0.0436882, Final residual = 8.49395e-05, No Iterations 5
DILUPBiCGStab:  Solving for Uy, Initial residual = 0.0871973, Final residual = 5.74933e-05, No Iterations 5
DILUPBiCGStab:  Solving for Uz, Initial residual = 0.132543, Final residual = 0.000248578, No Iterations 5
linear solve U 22309773
PETSc-cg:  Solving for p, Initial residual = 0.320107, Final residual = 9.99044e-05, No Iterations 1487
linear solve p 603046815
time step continuity errors : sum local = 2.29986e-10, global = 4.9088e-24, cumulative = -3.80489e-24
PETSc-cg:  Solving for p, Initial residual = 0.265675, Final residual = 9.79145e-05, No Iterations 1466
linear solve p 594537606
time step continuity errors : sum local = 2.16849e-10, global = -1.14112e-23, cumulative = -1.52161e-23
ExecutionTime = 9121.27 s  ClockTime = 9143 s

Time = 0.000125

Courant Number mean: 0.00255413 max: 0.0919042
DILUPBiCGStab:  Solving for Ux, Initial residual = 0.0332524, Final residual = 5.10828e-05, No Iterations 5
DILUPBiCGStab:  Solving for Uy, Initial residual = 0.0630107, Final residual = 3.67645e-05, No Iterations 5
DILUPBiCGStab:  Solving for Uz, Initial residual = 0.0910234, Final residual = 0.000139387, No Iterations 5
linear solve U 22320418
PETSc-cg:  Solving for p, Initial residual = 0.213943, Final residual = 9.96699e-05, No Iterations 1436
linear solve p 582381816
time step continuity errors : sum local = 1.92475e-10, global = -1.7703e-23, cumulative = -3.29191e-23
PETSc-cg:  Solving for p, Initial residual = 0.180194, Final residual = 9.77275e-05, No Iterations 1433
linear solve p 581096932
time step continuity errors : sum local = 1.85699e-10, global = -1.55494e-23, cumulative = -4.84684e-23
ExecutionTime = 10320.4 s  ClockTime = 10344 s

Time = 0.00015

Courant Number mean: 0.00284935 max: 0.0928888
DILUPBiCGStab:  Solving for Ux, Initial residual = 0.0270466, Final residual = 3.35989e-05, No Iterations 5
DILUPBiCGStab:  Solving for Uy, Initial residual = 0.0494904, Final residual = 1.57018e-05, No Iterations 5
DILUPBiCGStab:  Solving for Uz, Initial residual = 0.0794061, Final residual = 0.00010523, No Iterations 5
linear solve U 22315414
PETSc-cg:  Solving for p, Initial residual = 0.12744, Final residual = 9.88036e-05, No Iterations 1450
linear solve p 588024601
time step continuity errors : sum local = 1.9744e-10, global = 7.3051e-23, cumulative = 2.45826e-23
================================================================================
hash: 9b797a58e6ccd2a12a39f971f13e60e1
/*---------------------------------------------------------------------------*\
| =========                 |                                                 |
| \\      /  F ield         | OpenFOAM: The Open Source CFD Toolbox           |
|  \\    /   O peration     | Version:  2112                                  |
|   \\  /    A nd           | Website:  www.openfoam.com                      |
|    \\/     M anipulation  |                                                 |
\*---------------------------------------------------------------------------*/
Build  : d44c8318f0-20220111 OPENFOAM=2112 version=v2112
Arch   : "LSB;label=32;scalar=64"
Exec   : icoFoam -parallel
Date   : Aug 05 2022
Time   : 13:46:31
Host   : hkn0626.localdomain
PID    : 972006
I/O    : uncollated
Case   : /hkfs/work/workspace/scratch/eq4036-lidDrivenCavity/single_node/mesh/400/matrix_solver/CG_NoPrecond_PETSC_CUDA/mpiRank_of/16/base
nProcs : 16
Hosts  :
(
    (hkn0626.localdomain 4)
    (hkn0627.localdomain 4)
    (hkn0628.localdomain 4)
    (hkn0630.localdomain 4)
)
Pstream initialized with:
    floatTransfer      : 0
    nProcsSimpleSum    : 0
    commsType          : nonBlocking
    polling iterations : 0
trapFpe: Floating point exception trapping enabled (FOAM_SIGFPE).
fileModificationChecking : Monitoring run-time modified files using timeStampMaster (fileModificationSkew 5, maxFileModificationPolls 20)
allowSystemOperations : Allowing user-supplied system call operations

// * * * * * * * * * * * * * * * * * * * * * * * * * * * * * * * * * * * * * //
Create time

Create mesh for time = 0


PISO: Operating solver in PISO mode

Reading transportProperties

Reading field p

Reading field U

Reading/calculating face flux field phi


Starting time loop

Time = 2.5e-05

Courant Number mean: 0 max: 0
DILUPBiCGStab:  Solving for Ux, Initial residual = 1, Final residual = 0.00138472, No Iterations 5
DILUPBiCGStab:  Solving for Uy:  solution singularity
DILUPBiCGStab:  Solving for Uz:  solution singularity
linear solve U 2686599
Initializing PETSc
PETSc-cg:  Solving for p, Initial residual = 1, Final residual = 9.92546e-05, No Iterations 3256
linear solve p 329831624
time step continuity errors : sum local = 2.41817e-10, global = 1.96321e-22, cumulative = 1.96321e-22
PETSc-cg:  Solving for p, Initial residual = 0.71766, Final residual = 9.98473e-05, No Iterations 3237
linear solve p 325316623
time step continuity errors : sum local = 3.27509e-10, global = -2.00779e-23, cumulative = 1.76243e-22
ExecutionTime = 674.1 s  ClockTime = 676 s

Time = 5e-05

Courant Number mean: 0.00116724 max: 0.075131
DILUPBiCGStab:  Solving for Ux, Initial residual = 0.159863, Final residual = 0.00085565, No Iterations 5
DILUPBiCGStab:  Solving for Uy, Initial residual = 0.348724, Final residual = 0.000853895, No Iterations 5
DILUPBiCGStab:  Solving for Uz, Initial residual = 0.994661, Final residual = 0.00320124, No Iterations 5
linear solve U 5388074
PETSc-cg:  Solving for p, Initial residual = 0.661071, Final residual = 9.9357e-05, No Iterations 3180
linear solve p 319622937
time step continuity errors : sum local = 3.55284e-10, global = -4.38895e-23, cumulative = 1.32354e-22
PETSc-cg:  Solving for p, Initial residual = 0.586595, Final residual = 9.95218e-05, No Iterations 3174
linear solve p 318856684
time step continuity errors : sum local = 3.62059e-10, global = -4.20641e-23, cumulative = 9.02894e-23
ExecutionTime = 1320.38 s  ClockTime = 1324 s

Time = 7.5e-05

Courant Number mean: 0.0017804 max: 0.0870164
DILUPBiCGStab:  Solving for Ux, Initial residual = 0.0661606, Final residual = 0.000253316, No Iterations 5
DILUPBiCGStab:  Solving for Uy, Initial residual = 0.138224, Final residual = 0.00023922, No Iterations 5
DILUPBiCGStab:  Solving for Uz, Initial residual = 0.438471, Final residual = 0.00183516, No Iterations 5
linear solve U 5434813
PETSc-cg:  Solving for p, Initial residual = 0.561109, Final residual = 9.94969e-05, No Iterations 3133
linear solve p 314924040
time step continuity errors : sum local = 2.54171e-10, global = 1.10279e-23, cumulative = 1.01317e-22
PETSc-cg:  Solving for p, Initial residual = 0.503478, Final residual = 9.94174e-05, No Iterations 3126
linear solve p 314200186
time step continuity errors : sum local = 2.48598e-10, global = -3.2301e-23, cumulative = 6.90163e-23
ExecutionTime = 1957.36 s  ClockTime = 1963 s

Time = 0.0001

Courant Number mean: 0.0022076 max: 0.0903162
DILUPBiCGStab:  Solving for Ux, Initial residual = 0.0437031, Final residual = 0.000111512, No Iterations 5
DILUPBiCGStab:  Solving for Uy, Initial residual = 0.0872306, Final residual = 9.60666e-05, No Iterations 5
DILUPBiCGStab:  Solving for Uz, Initial residual = 0.133818, Final residual = 0.000370944, No Iterations 5
linear solve U 5439738
PETSc-cg:  Solving for p, Initial residual = 0.325044, Final residual = 9.8043e-05, No Iterations 1488
linear solve p 149812473
time step continuity errors : sum local = 2.27549e-10, global = 5.96346e-23, cumulative = 1.28651e-22
PETSc-cg:  Solving for p, Initial residual = 0.270408, Final residual = 9.86179e-05, No Iterations 1467
linear solve p 147679047
time step continuity errors : sum local = 2.19996e-10, global = -8.32803e-23, cumulative = 4.53705e-23
ExecutionTime = 2263.55 s  ClockTime = 2270 s

Time = 0.000125

Courant Number mean: 0.00255334 max: 0.0919041
DILUPBiCGStab:  Solving for Ux, Initial residual = 0.0332647, Final residual = 6.83408e-05, No Iterations 5
DILUPBiCGStab:  Solving for Uy, Initial residual = 0.063034, Final residual = 5.81932e-05, No Iterations 5
DILUPBiCGStab:  Solving for Uz, Initial residual = 0.0920597, Final residual = 0.00023797, No Iterations 5
linear solve U 5426118
PETSc-cg:  Solving for p, Initial residual = 0.218119, Final residual = 9.92129e-05, No Iterations 1437
linear solve p 144708072
time step continuity errors : sum local = 1.92626e-10, global = 1.66606e-23, cumulative = 6.20311e-23
PETSc-cg:  Solving for p, Initial residual = 0.18394, Final residual = 9.82749e-05, No Iterations 1434
linear solve p 144394273
time step continuity errors : sum local = 1.87724e-10, global = 8.20373e-23, cumulative = 1.44068e-22
ExecutionTime = 2561.36 s  ClockTime = 2568 s

Time = 0.00015

Courant Number mean: 0.00284853 max: 0.0928885
DILUPBiCGStab:  Solving for Ux, Initial residual = 0.0270567, Final residual = 4.65159e-05, No Iterations 5
DILUPBiCGStab:  Solving for Uy, Initial residual = 0.0495084, Final residual = 2.53577e-05, No Iterations 5
DILUPBiCGStab:  Solving for Uz, Initial residual = 0.0802806, Final residual = 0.000148638, No Iterations 5
linear solve U 5436557
PETSc-cg:  Solving for p, Initial residual = 0.131202, Final residual = 9.74593e-05, No Iterations 1451
linear solve p 146114091
time step continuity errors : sum local = 1.95718e-10, global = 3.6383e-24, cumulative = 1.47707e-22
PETSc-cg:  Solving for p, Initial residual = 0.108678, Final residual = 9.89744e-05, No Iterations 1375
linear solve p 138488889
time step continuity errors : sum local = 1.89428e-10, global = 1.37338e-23, cumulative = 1.6144e-22
ExecutionTime = 2854.69 s  ClockTime = 2862 s

Time = 0.000175

Courant Number mean: 0.00310899 max: 0.0935744
DILUPBiCGStab:  Solving for Ux, Initial residual = 0.0228912, Final residual = 3.38668e-05, No Iterations 5
DILUPBiCGStab:  Solving for Uy, Initial residual = 0.040778, Final residual = 2.30625e-05, No Iterations 5
DILUPBiCGStab:  Solving for Uz, Initial residual = 0.0681994, Final residual = 9.7463e-05, No Iterations 5
linear solve U 5423659
PETSc-cg:  Solving for p, Initial residual = 0.0900435, Final residual = 9.88256e-05, No Iterations 1427
linear solve p 143745196
time step continuity errors : sum local = 1.84268e-10, global = -4.52429e-23, cumulative = 1.16198e-22
PETSc-cg:  Solving for p, Initial residual = 0.0753035, Final residual = 9.85369e-05, No Iterations 1380
linear solve p 138971783
time step continuity errors : sum local = 1.77784e-10, global = -1.17054e-23, cumulative = 1.04492e-22
ExecutionTime = 3146.13 s  ClockTime = 3154 s

Time = 0.0002

Courant Number mean: 0.00334351 max: 0.0940886
DILUPBiCGStab:  Solving for Ux, Initial residual = 0.0199008, Final residual = 2.57405e-05, No Iterations 5
DILUPBiCGStab:  Solving for Uy, Initial residual = 0.0346174, Final residual = 1.41367e-05, No Iterations 5
DILUPBiCGStab:  Solving for Uz, Initial residual = 0.0609857, Final residual = 7.2185e-05, No Iterations 5
linear solve U 5421590
PETSc-cg:  Solving for p, Initial residual = 0.0582897, Final residual = 9.98558e-05, No Iterations 2976
linear solve p 299262260
time step continuity errors : sum local = 1.77136e-10, global = -5.12179e-23, cumulative = 5.32742e-23
PETSc-cg:  Solving for p, Initial residual = 0.0500078, Final residual = 9.91119e-05, No Iterations 1441
linear solve p 145115200
time step continuity errors : sum local = 1.9123e-10, global = -4.32628e-23, cumulative = 1.00114e-23
ExecutionTime = 3598.87 s  ClockTime = 3608 s

Time = 0.000225

Courant Number mean: 0.00355785 max: 0.0944921
DILUPBiCGStab:  Solving for Ux, Initial residual = 0.0176116, Final residual = 1.9979e-05, No Iterations 5
DILUPBiCGStab:  Solving for Uy, Initial residual = 0.0301162, Final residual = 1.32389e-05, No Iterations 5
DILUPBiCGStab:  Solving for Uz, Initial residual = 0.0556863, Final residual = 7.38205e-05, No Iterations 5
linear solve U 5421835
PETSc-cg:  Solving for p, Initial residual = 0.0431949, Final residual = 9.96225e-05, No Iterations 2958
linear solve p 297434964
time step continuity errors : sum local = 1.75259e-10, global = -2.23886e-23, cumulative = -1.23772e-23
PETSc-cg:  Solving for p, Initial residual = 0.0373975, Final residual = 9.99176e-05, No Iterations 2943
linear solve p 295936187
time step continuity errors : sum local = 1.7583e-10, global = -6.34559e-23, cumulative = -7.5833e-23
ExecutionTime = 4200.25 s  ClockTime = 4211 s

Time = 0.00025

Courant Number mean: 0.00375594 max: 0.0948198
DILUPBiCGStab:  Solving for Ux, Initial residual = 0.0158256, Final residual = 1.59527e-05, No Iterations 5
DILUPBiCGStab:  Solving for Uy, Initial residual = 0.0265966, Final residual = 1.03991e-05, No Iterations 5
DILUPBiCGStab:  Solving for Uz, Initial residual = 0.0472806, Final residual = 4.63625e-05, No Iterations 5
linear solve U 5459623
PETSc-cg:  Solving for p, Initial residual = 0.0315573, Final residual = 9.96966e-05, No Iterations 1275
linear solve p 128427336
time step continuity errors : sum local = 1.88685e-10, global = -1.55497e-23, cumulative = -9.13827e-23
PETSc-cg:  Solving for p, Initial residual = 0.0280594, Final residual = 9.95476e-05, No Iterations 1241
linear solve p 125035424
time step continuity errors : sum local = 1.80282e-10, global = -5.21499e-23, cumulative = -1.43533e-22
ExecutionTime = 4462.53 s  ClockTime = 4474 s

Time = 0.000275

Courant Number mean: 0.00394045 max: 0.0950928
DILUPBiCGStab:  Solving for Ux, Initial residual = 0.0143678, Final residual = 1.30131e-05, No Iterations 5
DILUPBiCGStab:  Solving for Uy, Initial residual = 0.0238372, Final residual = 9.49975e-06, No Iterations 5
DILUPBiCGStab:  Solving for Uz, Initial residual = 0.043764, Final residual = 3.99517e-05, No Iterations 5
linear solve U 5415902
PETSc-cg:  Solving for p, Initial residual = 0.0253528, Final residual = 9.99612e-05, No Iterations 1307
linear solve p 131692453
time step continuity errors : sum local = 1.82419e-10, global = -1.02151e-22, cumulative = -2.45684e-22
PETSc-cg:  Solving for p, Initial residual = 0.0229227, Final residual = 9.99859e-05, No Iterations 1257
linear solve p 126668098
time step continuity errors : sum local = 1.75253e-10, global = -2.54662e-23, cumulative = -2.7115e-22
ExecutionTime = 4729.66 s  ClockTime = 4741 s

Time = 0.0003

Courant Number mean: 0.00411347 max: 0.0953247
DILUPBiCGStab:  Solving for Ux, Initial residual = 0.0131726, Final residual = 1.08581e-05, No Iterations 5
DILUPBiCGStab:  Solving for Uy, Initial residual = 0.0215651, Final residual = 8.44884e-06, No Iterations 5
DILUPBiCGStab:  Solving for Uz, Initial residual = 0.0409575, Final residual = 3.5882e-05, No Iterations 5
linear solve U 5412068
PETSc-cg:  Solving for p, Initial residual = 0.0202911, Final residual = 9.95984e-05, No Iterations 1435
linear solve p 144546991
time step continuity errors : sum local = 1.91365e-10, global = 5.90271e-24, cumulative = -2.65247e-22
PETSc-cg:  Solving for p, Initial residual = 0.0187741, Final residual = 9.94372e-05, No Iterations 1347
linear solve p 135695388
time step continuity errors : sum local = 1.8075e-10, global = -7.00952e-23, cumulative = -3.35342e-22
ExecutionTime = 5018.6 s  ClockTime = 5031 s

Time = 0.000325

Courant Number mean: 0.00427673 max: 0.095525
DILUPBiCGStab:  Solving for Ux, Initial residual = 0.0121538, Final residual = 9.23478e-06, No Iterations 5
DILUPBiCGStab:  Solving for Uy, Initial residual = 0.0197139, Final residual = 7.76307e-06, No Iterations 5
DILUPBiCGStab:  Solving for Uz, Initial residual = 0.038006, Final residual = 3.55472e-05, No Iterations 5
linear solve U 5410697
PETSc-cg:  Solving for p, Initial residual = 0.0177313, Final residual = 9.8565e-05, No Iterations 1369
linear solve p 137922789
time step continuity errors : sum local = 1.84002e-10, global = -2.21917e-24, cumulative = -3.37561e-22
PETSc-cg:  Solving for p, Initial residual = 0.0165176, Final residual = 9.96652e-05, No Iterations 1279
linear solve p 128899716
time step continuity errors : sum local = 1.75506e-10, global = 3.00871e-24, cumulative = -3.34553e-22
ExecutionTime = 5294.16 s  ClockTime = 5307 s

Time = 0.00035

Courant Number mean: 0.00443142 max: 0.0957001
DILUPBiCGStab:  Solving for Ux, Initial residual = 0.0112966, Final residual = 7.99961e-06, No Iterations 5
DILUPBiCGStab:  Solving for Uy, Initial residual = 0.0181188, Final residual = 7.10358e-06, No Iterations 5
DILUPBiCGStab:  Solving for Uz, Initial residual = 0.0355634, Final residual = 3.43867e-05, No Iterations 5
linear solve U 5416824
PETSc-cg:  Solving for p, Initial residual = 0.0153908, Final residual = 9.94959e-05, No Iterations 2903
linear solve p 291947201
time step continuity errors : sum local = 1.73662e-10, global = -3.8416e-23, cumulative = -3.72969e-22
PETSc-cg:  Solving for p, Initial residual = 0.014512, Final residual = 9.99359e-05, No Iterations 2900
linear solve p 291617932
time step continuity errors : sum local = 1.74521e-10, global = -3.25311e-24, cumulative = -3.76222e-22
ExecutionTime = 5885.72 s  ClockTime = 5900 s

Time = 0.000375

Courant Number mean: 0.00457851 max: 0.095855
DILUPBiCGStab:  Solving for Ux, Initial residual = 0.0105439, Final residual = 7.03686e-06, No Iterations 5
DILUPBiCGStab:  Solving for Uy, Initial residual = 0.0167809, Final residual = 6.55991e-06, No Iterations 5
DILUPBiCGStab:  Solving for Uz, Initial residual = 0.0315227, Final residual = 1.982e-05, No Iterations 5
linear solve U 5420817
PETSc-cg:  Solving for p, Initial residual = 0.0139509, Final residual = 9.97896e-05, No Iterations 1182
linear solve p 119111989
time step continuity errors : sum local = 1.79109e-10, global = 6.65105e-23, cumulative = -3.09711e-22
PETSc-cg:  Solving for p, Initial residual = 0.0131959, Final residual = 9.91731e-05, No Iterations 1173
linear solve p 118202072
time step continuity errors : sum local = 1.75219e-10, global = -1.1452e-22, cumulative = -4.24231e-22
ExecutionTime = 6131.85 s  ClockTime = 6147 s

Time = 0.0004

Courant Number mean: 0.004719 max: 0.0959933
DILUPBiCGStab:  Solving for Ux, Initial residual = 0.00989075, Final residual = 6.28348e-06, No Iterations 5
DILUPBiCGStab:  Solving for Uy, Initial residual = 0.0156135, Final residual = 6.08043e-06, No Iterations 5
DILUPBiCGStab:  Solving for Uz, Initial residual = 0.0299428, Final residual = 1.537e-05, No Iterations 5
linear solve U 5414299
PETSc-cg:  Solving for p, Initial residual = 0.0125385, Final residual = 9.96776e-05, No Iterations 1188
linear solve p 119719982
time step continuity errors : sum local = 1.79496e-10, global = -1.15295e-23, cumulative = -4.35761e-22
PETSc-cg:  Solving for p, Initial residual = 0.0119379, Final residual = 9.94264e-05, No Iterations 1175
linear solve p 118404577
time step continuity errors : sum local = 1.74692e-10, global = -3.79466e-23, cumulative = -4.73707e-22
ExecutionTime = 6378.77 s  ClockTime = 6394 s

Time = 0.000425

Courant Number mean: 0.00485338 max: 0.0961176
DILUPBiCGStab:  Solving for Ux, Initial residual = 0.00931068, Final residual = 5.68604e-06, No Iterations 5
DILUPBiCGStab:  Solving for Uy, Initial residual = 0.0146056, Final residual = 5.65657e-06, No Iterations 5
DILUPBiCGStab:  Solving for Uz, Initial residual = 0.0281128, Final residual = 1.58091e-05, No Iterations 5
linear solve U 5434460
PETSc-cg:  Solving for p, Initial residual = 0.0114064, Final residual = 9.98764e-05, No Iterations 1305
linear solve p 131402697
time step continuity errors : sum local = 1.81085e-10, global = 5.48117e-23, cumulative = -4.18895e-22
PETSc-cg:  Solving for p, Initial residual = 0.0108786, Final residual = 9.93631e-05, No Iterations 1274
linear solve p 128338262
time step continuity errors : sum local = 1.76054e-10, global = -2.29342e-23, cumulative = -4.4183e-22
ExecutionTime = 6647.27 s  ClockTime = 6663 s

Time = 0.00045

Courant Number mean: 0.00498241 max: 0.0962303
DILUPBiCGStab:  Solving for Ux, Initial residual = 0.00880037, Final residual = 5.19929e-06, No Iterations 5
DILUPBiCGStab:  Solving for Uy, Initial residual = 0.0137067, Final residual = 5.27757e-06, No Iterations 5
DILUPBiCGStab:  Solving for Uz, Initial residual = 0.0268548, Final residual = 1.51503e-05, No Iterations 5
linear solve U 5421382
PETSc-cg:  Solving for p, Initial residual = 0.0105464, Final residual = 9.9566e-05, No Iterations 1297
linear solve p 130685973
time step continuity errors : sum local = 1.81449e-10, global = -9.13214e-23, cumulative = -5.33151e-22
PETSc-cg:  Solving for p, Initial residual = 0.0100771, Final residual = 9.98296e-05, No Iterations 1218
linear solve p 122717675
time step continuity errors : sum local = 1.76162e-10, global = -6.04632e-23, cumulative = -5.93614e-22
ExecutionTime = 6909.44 s  ClockTime = 6926 s

Time = 0.000475

Courant Number mean: 0.00510644 max: 0.096333
DILUPBiCGStab:  Solving for Ux, Initial residual = 0.00833754, Final residual = 4.79538e-06, No Iterations 5
DILUPBiCGStab:  Solving for Uy, Initial residual = 0.0129219, Final residual = 4.94966e-06, No Iterations 5
DILUPBiCGStab:  Solving for Uz, Initial residual = 0.0254013, Final residual = 1.60427e-05, No Iterations 5
linear solve U 5423907
PETSc-cg:  Solving for p, Initial residual = 0.00990325, Final residual = 9.9622e-05, No Iterations 1311
linear solve p 132014005
time step continuity errors : sum local = 1.83134e-10, global = 6.67237e-23, cumulative = -5.26891e-22
PETSc-cg:  Solving for p, Initial residual = 0.00946273, Final residual = 9.95307e-05, No Iterations 1284
linear solve p 129386505
time step continuity errors : sum local = 1.77071e-10, global = -2.90967e-25, cumulative = -5.27182e-22
ExecutionTime = 7179.56 s  ClockTime = 7197 s

Time = 0.0005

Courant Number mean: 0.00522603 max: 0.0964271
DILUPBiCGStab:  Solving for Ux, Initial residual = 0.00792802, Final residual = 4.46126e-06, No Iterations 5
DILUPBiCGStab:  Solving for Uy, Initial residual = 0.0122059, Final residual = 4.65557e-06, No Iterations 5
DILUPBiCGStab:  Solving for Uz, Initial residual = 0.0242365, Final residual = 1.61414e-05, No Iterations 5
linear solve U 5407188
PETSc-cg:  Solving for p, Initial residual = 0.00926619, Final residual = 9.97065e-05, No Iterations 1294
linear solve p 130235855
time step continuity errors : sum local = 1.84577e-10, global = 2.35714e-23, cumulative = -5.0361e-22
PETSc-cg:  Solving for p, Initial residual = 0.00886494, Final residual = 9.99722e-05, No Iterations 1178
linear solve p 118569524
time step continuity errors : sum local = 1.77411e-10, global = 5.78118e-23, cumulative = -4.45798e-22
ExecutionTime = 7437.09 s  ClockTime = 7455 s

End

Finalizing PETSc
Finalising parallel run
================================================================================
hash: 14ae2306937920244100648a65c8ff36
/*---------------------------------------------------------------------------*\
| =========                 |                                                 |
| \\      /  F ield         | OpenFOAM: The Open Source CFD Toolbox           |
|  \\    /   O peration     | Version:  2112                                  |
|   \\  /    A nd           | Website:  www.openfoam.com                      |
|    \\/     M anipulation  |                                                 |
\*---------------------------------------------------------------------------*/
Build  : d44c8318f0-20220111 OPENFOAM=2112 version=v2112
Arch   : "LSB;label=32;scalar=64"
Exec   : icoFoam -parallel
Date   : Aug 05 2022
Time   : 13:46:31
Host   : hkn0501.localdomain
PID    : 2715996
I/O    : uncollated
Case   : /hkfs/work/workspace/scratch/eq4036-lidDrivenCavity/single_node/mesh/400/matrix_solver/CG_NoPrecond_PETSC_CUDA/mpiRank_of/32/base
nProcs : 32
Hosts  :
(
    (hkn0501.localdomain 4)
    (hkn0502.localdomain 4)
    (hkn0503.localdomain 4)
    (hkn0504.localdomain 4)
    (hkn0505.localdomain 4)
    (hkn0506.localdomain 4)
    (hkn0507.localdomain 4)
    (hkn0508.localdomain 4)
)
Pstream initialized with:
    floatTransfer      : 0
    nProcsSimpleSum    : 0
    commsType          : nonBlocking
    polling iterations : 0
trapFpe: Floating point exception trapping enabled (FOAM_SIGFPE).
fileModificationChecking : Monitoring run-time modified files using timeStampMaster (fileModificationSkew 5, maxFileModificationPolls 20)
allowSystemOperations : Allowing user-supplied system call operations

// * * * * * * * * * * * * * * * * * * * * * * * * * * * * * * * * * * * * * //
Create time

Create mesh for time = 0


PISO: Operating solver in PISO mode

Reading transportProperties

Reading field p

Reading field U

Reading/calculating face flux field phi


Starting time loop

Time = 2.5e-05

Courant Number mean: 0 max: 0
DILUPBiCGStab:  Solving for Ux, Initial residual = 1, Final residual = 0.00138472, No Iterations 5
DILUPBiCGStab:  Solving for Uy:  solution singularity
DILUPBiCGStab:  Solving for Uz:  solution singularity
linear solve U 1300009
Initializing PETSc
PETSc-cg:  Solving for p, Initial residual = 1, Final residual = 9.92545e-05, No Iterations 3256
linear solve p 158316342
time step continuity errors : sum local = 2.41817e-10, global = 2.29521e-22, cumulative = 2.29521e-22
PETSc-cg:  Solving for p, Initial residual = 0.71766, Final residual = 9.98479e-05, No Iterations 3237
linear solve p 156085037
time step continuity errors : sum local = 3.27511e-10, global = -6.891e-23, cumulative = 1.60611e-22
ExecutionTime = 324.01 s  ClockTime = 325 s

Time = 5e-05

Courant Number mean: 0.00116724 max: 0.075131
DILUPBiCGStab:  Solving for Ux, Initial residual = 0.159863, Final residual = 0.000886592, No Iterations 5
DILUPBiCGStab:  Solving for Uy, Initial residual = 0.348724, Final residual = 0.000948013, No Iterations 5
DILUPBiCGStab:  Solving for Uz, Initial residual = 0.994661, Final residual = 0.00355307, No Iterations 5
linear solve U 2587740
PETSc-cg:  Solving for p, Initial residual = 0.662877, Final residual = 9.88151e-05, No Iterations 3180
linear solve p 153272676
time step continuity errors : sum local = 3.55244e-10, global = -3.16683e-23, cumulative = 1.28943e-22
PETSc-cg:  Solving for p, Initial residual = 0.588461, Final residual = 9.89317e-05, No Iterations 3174
linear solve p 152941055
time step continuity errors : sum local = 3.61889e-10, global = 2.15111e-23, cumulative = 1.50454e-22
ExecutionTime = 634.09 s  ClockTime = 636 s

Time = 7.5e-05

Courant Number mean: 0.0017804 max: 0.0870161
DILUPBiCGStab:  Solving for Ux, Initial residual = 0.0661614, Final residual = 0.000264838, No Iterations 5
DILUPBiCGStab:  Solving for Uy, Initial residual = 0.138226, Final residual = 0.000268004, No Iterations 5
DILUPBiCGStab:  Solving for Uz, Initial residual = 0.438204, Final residual = 0.00189001, No Iterations 5
linear solve U 2609110
PETSc-cg:  Solving for p, Initial residual = 0.561916, Final residual = 9.92757e-05, No Iterations 3133
linear solve p 151013843
time step continuity errors : sum local = 2.54173e-10, global = -9.42865e-24, cumulative = 1.41026e-22
PETSc-cg:  Solving for p, Initial residual = 0.504392, Final residual = 9.91813e-05, No Iterations 3126
linear solve p 150741989
time step continuity errors : sum local = 2.48515e-10, global = -9.47074e-23, cumulative = 4.63182e-23
ExecutionTime = 939.73 s  ClockTime = 942 s

Time = 0.0001

Courant Number mean: 0.00220759 max: 0.090316
DILUPBiCGStab:  Solving for Ux, Initial residual = 0.0437032, Final residual = 0.000117706, No Iterations 5
DILUPBiCGStab:  Solving for Uy, Initial residual = 0.0872305, Final residual = 0.000107908, No Iterations 5
DILUPBiCGStab:  Solving for Uz, Initial residual = 0.134067, Final residual = 0.000387159, No Iterations 5
linear solve U 2609093
PETSc-cg:  Solving for p, Initial residual = 0.326173, Final residual = 9.98038e-05, No Iterations 1487
linear solve p 71739923
time step continuity errors : sum local = 2.31717e-10, global = 2.0695e-23, cumulative = 6.70133e-23
PETSc-cg:  Solving for p, Initial residual = 0.271546, Final residual = 9.85795e-05, No Iterations 1467
linear solve p 70792396
time step continuity errors : sum local = 2.20293e-10, global = 3.04855e-23, cumulative = 9.74987e-23
ExecutionTime = 1086.48 s  ClockTime = 1089 s

Time = 0.000125

Courant Number mean: 0.00255333 max: 0.091904
DILUPBiCGStab:  Solving for Ux, Initial residual = 0.0332648, Final residual = 7.29166e-05, No Iterations 5
DILUPBiCGStab:  Solving for Uy, Initial residual = 0.0630336, Final residual = 6.55547e-05, No Iterations 5
DILUPBiCGStab:  Solving for Uz, Initial residual = 0.0922799, Final residual = 0.000256897, No Iterations 5
linear solve U 2608808
PETSc-cg:  Solving for p, Initial residual = 0.218998, Final residual = 9.90027e-05, No Iterations 1437
linear solve p 69352918
time step continuity errors : sum local = 1.92465e-10, global = 6.95788e-23, cumulative = 1.67078e-22
PETSc-cg:  Solving for p, Initial residual = 0.184874, Final residual = 9.81288e-05, No Iterations 1434
linear solve p 69229789
time step continuity errors : sum local = 1.87675e-10, global = 1.37726e-23, cumulative = 1.8085e-22
ExecutionTime = 1229.32 s  ClockTime = 1232 s

Time = 0.00015

Courant Number mean: 0.00284853 max: 0.0928884
DILUPBiCGStab:  Solving for Ux, Initial residual = 0.0270568, Final residual = 5.00341e-05, No Iterations 5
DILUPBiCGStab:  Solving for Uy, Initial residual = 0.0495079, Final residual = 3.20568e-05, No Iterations 5
DILUPBiCGStab:  Solving for Uz, Initial residual = 0.0804528, Final residual = 0.000162312, No Iterations 5
linear solve U 2622061
PETSc-cg:  Solving for p, Initial residual = 0.131867, Final residual = 9.74114e-05, No Iterations 1451
linear solve p 70042050
time step continuity errors : sum local = 1.95739e-10, global = -3.82106e-23, cumulative = 1.4264e-22
PETSc-cg:  Solving for p, Initial residual = 0.109336, Final residual = 9.86718e-05, No Iterations 1375
linear solve p 66403660
time step continuity errors : sum local = 1.89008e-10, global = -8.06501e-24, cumulative = 1.34575e-22
ExecutionTime = 1370.02 s  ClockTime = 1373 s

Time = 0.000175

Courant Number mean: 0.00310899 max: 0.0935743
DILUPBiCGStab:  Solving for Ux, Initial residual = 0.0228913, Final residual = 3.66687e-05, No Iterations 5
DILUPBiCGStab:  Solving for Uy, Initial residual = 0.0407774, Final residual = 2.86052e-05, No Iterations 5
DILUPBiCGStab:  Solving for Uz, Initial residual = 0.0683236, Final residual = 0.000108483, No Iterations 5
linear solve U 2605478
PETSc-cg:  Solving for p, Initial residual = 0.0907172, Final residual = 9.88391e-05, No Iterations 1427
linear solve p 68882411
time step continuity errors : sum local = 1.84421e-10, global = 4.84547e-24, cumulative = 1.3942e-22
PETSc-cg:  Solving for p, Initial residual = 0.0760156, Final residual = 9.83521e-05, No Iterations 1380
linear solve p 66645200
time step continuity errors : sum local = 1.77588e-10, global = 2.38519e-23, cumulative = 1.63272e-22
ExecutionTime = 1509.8 s  ClockTime = 1513 s

Time = 0.0002

Courant Number mean: 0.00334351 max: 0.0940885
DILUPBiCGStab:  Solving for Ux, Initial residual = 0.0199009, Final residual = 2.8084e-05, No Iterations 5
DILUPBiCGStab:  Solving for Uy, Initial residual = 0.0346169, Final residual = 2.08578e-05, No Iterations 5
DILUPBiCGStab:  Solving for Uz, Initial residual = 0.061087, Final residual = 8.09709e-05, No Iterations 5
linear solve U 2626372
PETSc-cg:  Solving for p, Initial residual = 0.0587773, Final residual = 9.95299e-05, No Iterations 2976
linear solve p 143502681
time step continuity errors : sum local = 1.76654e-10, global = -4.25956e-23, cumulative = 1.20676e-22
PETSc-cg:  Solving for p, Initial residual = 0.0504995, Final residual = 9.87923e-05, No Iterations 1441
linear solve p 69591194
time step continuity errors : sum local = 1.9071e-10, global = -4.91914e-23, cumulative = 7.14849e-23
ExecutionTime = 1726.97 s  ClockTime = 1731 s

Time = 0.000225

Courant Number mean: 0.00355785 max: 0.094492
DILUPBiCGStab:  Solving for Ux, Initial residual = 0.0176117, Final residual = 2.19627e-05, No Iterations 5
DILUPBiCGStab:  Solving for Uy, Initial residual = 0.0301157, Final residual = 1.90959e-05, No Iterations 5
DILUPBiCGStab:  Solving for Uz, Initial residual = 0.0557599, Final residual = 8.36269e-05, No Iterations 5
linear solve U 2611246
PETSc-cg:  Solving for p, Initial residual = 0.0437157, Final residual = 9.93908e-05, No Iterations 2958
linear solve p 142515678
time step continuity errors : sum local = 1.74949e-10, global = -4.3558e-23, cumulative = 2.79269e-23
PETSc-cg:  Solving for p, Initial residual = 0.0379187, Final residual = 9.96735e-05, No Iterations 2943
linear solve p 141809584
time step continuity errors : sum local = 1.75498e-10, global = -4.97021e-23, cumulative = -2.17752e-23
ExecutionTime = 2015.23 s  ClockTime = 2020 s

Time = 0.00025

Courant Number mean: 0.00375594 max: 0.0948197
DILUPBiCGStab:  Solving for Ux, Initial residual = 0.0158256, Final residual = 1.76788e-05, No Iterations 5
DILUPBiCGStab:  Solving for Uy, Initial residual = 0.0265961, Final residual = 1.60166e-05, No Iterations 5
DILUPBiCGStab:  Solving for Uz, Initial residual = 0.0473529, Final residual = 5.31135e-05, No Iterations 5
linear solve U 2624135
PETSc-cg:  Solving for p, Initial residual = 0.0320096, Final residual = 9.96785e-05, No Iterations 1274
linear solve p 61504119
time step continuity errors : sum local = 1.88683e-10, global = 1.11234e-22, cumulative = 8.94586e-23
PETSc-cg:  Solving for p, Initial residual = 0.0285182, Final residual = 9.95615e-05, No Iterations 1241
linear solve p 59944970
time step continuity errors : sum local = 1.8037e-10, global = 6.28961e-23, cumulative = 1.52355e-22
ExecutionTime = 2140.98 s  ClockTime = 2146 s

Time = 0.000275

Courant Number mean: 0.00394045 max: 0.0950927
DILUPBiCGStab:  Solving for Ux, Initial residual = 0.0143678, Final residual = 1.45315e-05, No Iterations 5
DILUPBiCGStab:  Solving for Uy, Initial residual = 0.0238367, Final residual = 1.44842e-05, No Iterations 5
DILUPBiCGStab:  Solving for Uz, Initial residual = 0.0438234, Final residual = 4.62139e-05, No Iterations 5
linear solve U 2605695
PETSc-cg:  Solving for p, Initial residual = 0.0258155, Final residual = 9.99723e-05, No Iterations 1312
linear solve p 63385210
time step continuity errors : sum local = 1.82493e-10, global = -5.67459e-23, cumulative = 9.56088e-23
PETSc-cg:  Solving for p, Initial residual = 0.0233874, Final residual = 9.96251e-05, No Iterations 1254
linear solve p 60588732
time step continuity errors : sum local = 1.74703e-10, global = 1.8083e-23, cumulative = 1.13692e-22
ExecutionTime = 2269.23 s  ClockTime = 2275 s

Time = 0.0003

Courant Number mean: 0.00411347 max: 0.0953247
DILUPBiCGStab:  Solving for Ux, Initial residual = 0.0131727, Final residual = 1.2215e-05, No Iterations 5
DILUPBiCGStab:  Solving for Uy, Initial residual = 0.0215646, Final residual = 1.27283e-05, No Iterations 5
DILUPBiCGStab:  Solving for Uz, Initial residual = 0.0410088, Final residual = 4.17652e-05, No Iterations 5
linear solve U 2635729
PETSc-cg:  Solving for p, Initial residual = 0.0206832, Final residual = 9.89714e-05, No Iterations 1435
linear solve p 69317890
time step continuity errors : sum local = 1.90272e-10, global = 8.2214e-24, cumulative = 1.21913e-22
PETSc-cg:  Solving for p, Initial residual = 0.0191765, Final residual = 9.91152e-05, No Iterations 1347
linear solve p 65078195
time step continuity errors : sum local = 1.80234e-10, global = 1.60938e-23, cumulative = 1.38007e-22
ExecutionTime = 2407.9 s  ClockTime = 2413 s

Time = 0.000325

Courant Number mean: 0.00427673 max: 0.0955249
DILUPBiCGStab:  Solving for Ux, Initial residual = 0.0121539, Final residual = 1.04581e-05, No Iterations 5
DILUPBiCGStab:  Solving for Uy, Initial residual = 0.0197134, Final residual = 1.15664e-05, No Iterations 5
DILUPBiCGStab:  Solving for Uz, Initial residual = 0.0380464, Final residual = 4.19431e-05, No Iterations 5
linear solve U 2610337
PETSc-cg:  Solving for p, Initial residual = 0.0181298, Final residual = 9.8614e-05, No Iterations 1369
linear solve p 66118664
time step continuity errors : sum local = 1.84107e-10, global = 5.64034e-24, cumulative = 1.43647e-22
PETSc-cg:  Solving for p, Initial residual = 0.0169187, Final residual = 9.99755e-05, No Iterations 1276
linear solve p 61568120
time step continuity errors : sum local = 1.76111e-10, global = 3.45682e-23, cumulative = 1.78216e-22
ExecutionTime = 2539.84 s  ClockTime = 2546 s

Time = 0.00035

Courant Number mean: 0.00443142 max: 0.0957
DILUPBiCGStab:  Solving for Ux, Initial residual = 0.0112966, Final residual = 9.11863e-06, No Iterations 5
DILUPBiCGStab:  Solving for Uy, Initial residual = 0.0181184, Final residual = 1.04503e-05, No Iterations 5
DILUPBiCGStab:  Solving for Uz, Initial residual = 0.0356031, Final residual = 4.07212e-05, No Iterations 5
linear solve U 2637546
PETSc-cg:  Solving for p, Initial residual = 0.0157699, Final residual = 9.94735e-05, No Iterations 2903
linear solve p 139768947
time step continuity errors : sum local = 1.73694e-10, global = -1.7779e-23, cumulative = 1.60437e-22
PETSc-cg:  Solving for p, Initial residual = 0.0148977, Final residual = 9.99922e-05, No Iterations 2900
linear solve p 139630043
time step continuity errors : sum local = 1.74691e-10, global = -6.9853e-23, cumulative = 9.05837e-23
ExecutionTime = 2823.18 s  ClockTime = 2830 s

Time = 0.000375

Courant Number mean: 0.00457851 max: 0.095855
DILUPBiCGStab:  Solving for Ux, Initial residual = 0.0105439, Final residual = 8.06968e-06, No Iterations 5
DILUPBiCGStab:  Solving for Uy, Initial residual = 0.0167805, Final residual = 9.56969e-06, No Iterations 5
DILUPBiCGStab:  Solving for Uz, Initial residual = 0.0315629, Final residual = 2.37236e-05, No Iterations 5
linear solve U 2610052
PETSc-cg:  Solving for p, Initial residual = 0.0142992, Final residual = 9.92973e-05, No Iterations 1183
linear solve p 57105180
time step continuity errors : sum local = 1.78298e-10, global = -4.98816e-23, cumulative = 4.07021e-23
PETSc-cg:  Solving for p, Initial residual = 0.0135471, Final residual = 9.94385e-05, No Iterations 1173
linear solve p 56592974
time step continuity errors : sum local = 1.7574e-10, global = 1.5304e-23, cumulative = 5.60061e-23
ExecutionTime = 2941.17 s  ClockTime = 2948 s

Time = 0.0004

Courant Number mean: 0.004719 max: 0.0959932
DILUPBiCGStab:  Solving for Ux, Initial residual = 0.0098908, Final residual = 7.24297e-06, No Iterations 5
DILUPBiCGStab:  Solving for Uy, Initial residual = 0.0156132, Final residual = 8.79216e-06, No Iterations 5
DILUPBiCGStab:  Solving for Uz, Initial residual = 0.029978, Final residual = 1.84673e-05, No Iterations 5
linear solve U 2619477
PETSc-cg:  Solving for p, Initial residual = 0.0128585, Final residual = 9.86625e-05, No Iterations 1190
linear solve p 57361093
time step continuity errors : sum local = 1.77758e-10, global = -1.21252e-22, cumulative = -6.52463e-23
PETSc-cg:  Solving for p, Initial residual = 0.0122564, Final residual = 9.76647e-05, No Iterations 1174
linear solve p 56658638
time step continuity errors : sum local = 1.71669e-10, global = 2.27976e-23, cumulative = -4.24487e-23
ExecutionTime = 3059.46 s  ClockTime = 3067 s

Time = 0.000425

Courant Number mean: 0.00485338 max: 0.0961176
DILUPBiCGStab:  Solving for Ux, Initial residual = 0.00931075, Final residual = 6.58462e-06, No Iterations 5
DILUPBiCGStab:  Solving for Uy, Initial residual = 0.0146052, Final residual = 8.15471e-06, No Iterations 5
DILUPBiCGStab:  Solving for Uz, Initial residual = 0.0281453, Final residual = 1.89978e-05, No Iterations 5
linear solve U 2609780
PETSc-cg:  Solving for p, Initial residual = 0.0117055, Final residual = 9.9582e-05, No Iterations 1307
linear solve p 63008328
time step continuity errors : sum local = 1.80601e-10, global = -6.72537e-24, cumulative = -4.91741e-23
PETSc-cg:  Solving for p, Initial residual = 0.0111796, Final residual = 9.97163e-05, No Iterations 1274
linear solve p 61396166
time step continuity errors : sum local = 1.76717e-10, global = -1.7516e-22, cumulative = -2.24334e-22
ExecutionTime = 3188.15 s  ClockTime = 3195 s

Time = 0.00045

Courant Number mean: 0.00498241 max: 0.0962302
DILUPBiCGStab:  Solving for Ux, Initial residual = 0.00880042, Final residual = 6.05457e-06, No Iterations 5
DILUPBiCGStab:  Solving for Uy, Initial residual = 0.0137064, Final residual = 7.58722e-06, No Iterations 5
DILUPBiCGStab:  Solving for Uz, Initial residual = 0.0268815, Final residual = 1.82871e-05, No Iterations 5
linear solve U 2634705
PETSc-cg:  Solving for p, Initial residual = 0.0108863, Final residual = 9.92879e-05, No Iterations 1297
linear solve p 62542667
time step continuity errors : sum local = 1.80992e-10, global = 8.28512e-23, cumulative = -1.41483e-22
PETSc-cg:  Solving for p, Initial residual = 0.010418, Final residual = 9.9896e-05, No Iterations 1216
linear solve p 58700877
time step continuity errors : sum local = 1.76334e-10, global = 2.24612e-23, cumulative = -1.19022e-22
ExecutionTime = 3313.69 s  ClockTime = 3321 s

Time = 0.000475

Courant Number mean: 0.00510644 max: 0.096333
DILUPBiCGStab:  Solving for Ux, Initial residual = 0.0083376, Final residual = 5.62711e-06, No Iterations 5
DILUPBiCGStab:  Solving for Uy, Initial residual = 0.0129216, Final residual = 7.10725e-06, No Iterations 5
DILUPBiCGStab:  Solving for Uz, Initial residual = 0.0254262, Final residual = 1.95742e-05, No Iterations 5
linear solve U 2608147
PETSc-cg:  Solving for p, Initial residual = 0.0101883, Final residual = 9.96523e-05, No Iterations 1311
linear solve p 63264019
time step continuity errors : sum local = 1.83203e-10, global = -5.95292e-23, cumulative = -1.78551e-22
PETSc-cg:  Solving for p, Initial residual = 0.00974861, Final residual = 9.98179e-05, No Iterations 1284
linear solve p 61887866
time step continuity errors : sum local = 1.77613e-10, global = -1.33059e-22, cumulative = -3.1161e-22
ExecutionTime = 3443.09 s  ClockTime = 3451 s

Time = 0.0005

Courant Number mean: 0.00522603 max: 0.0964271
DILUPBiCGStab:  Solving for Ux, Initial residual = 0.00792806, Final residual = 5.291e-06, No Iterations 5
DILUPBiCGStab:  Solving for Uy, Initial residual = 0.0122057, Final residual = 6.6771e-06, No Iterations 5
DILUPBiCGStab:  Solving for Uz, Initial residual = 0.0242601, Final residual = 1.97404e-05, No Iterations 5
linear solve U 2625251
PETSc-cg:  Solving for p, Initial residual = 0.00958445, Final residual = 9.92413e-05, No Iterations 1295
linear solve p 62490810
time step continuity errors : sum local = 1.83777e-10, global = 1.09996e-22, cumulative = -2.01614e-22
PETSc-cg:  Solving for p, Initial residual = 0.00918682, Final residual = 9.9304e-05, No Iterations 1180
linear solve p 56967432
time step continuity errors : sum local = 1.76291e-10, global = -1.24521e-22, cumulative = -3.26135e-22
ExecutionTime = 3566.83 s  ClockTime = 3575 s

End

Finalizing PETSc
Finalising parallel run
================================================================================
hash: 54e5f178063358d299b2a3479c0369bd
/*---------------------------------------------------------------------------*\
| =========                 |                                                 |
| \\      /  F ield         | OpenFOAM: The Open Source CFD Toolbox           |
|  \\    /   O peration     | Version:  2112                                  |
|   \\  /    A nd           | Website:  www.openfoam.com                      |
|    \\/     M anipulation  |                                                 |
\*---------------------------------------------------------------------------*/
Build  : d44c8318f0-20220111 OPENFOAM=2112 version=v2112
Arch   : "LSB;label=32;scalar=64"
Exec   : icoFoam -parallel
Date   : Aug 05 2022
Time   : 13:46:31
Host   : hkn0631.localdomain
PID    : 997359
I/O    : uncollated
Case   : /hkfs/work/workspace/scratch/eq4036-lidDrivenCavity/single_node/mesh/400/matrix_solver/CG_NoPrecond_PETSC_CUDA/mpiRank_of/8/base
nProcs : 8
Hosts  :
(
    (hkn0631.localdomain 4)
    (hkn0632.localdomain 4)
)
Pstream initialized with:
    floatTransfer      : 0
    nProcsSimpleSum    : 0
    commsType          : nonBlocking
    polling iterations : 0
trapFpe: Floating point exception trapping enabled (FOAM_SIGFPE).
fileModificationChecking : Monitoring run-time modified files using timeStampMaster (fileModificationSkew 5, maxFileModificationPolls 20)
allowSystemOperations : Allowing user-supplied system call operations

// * * * * * * * * * * * * * * * * * * * * * * * * * * * * * * * * * * * * * //
Create time

Create mesh for time = 0


PISO: Operating solver in PISO mode

Reading transportProperties

Reading field p

Reading field U

Reading/calculating face flux field phi


Starting time loop

Time = 2.5e-05

Courant Number mean: 0 max: 0
DILUPBiCGStab:  Solving for Ux, Initial residual = 1, Final residual = 0.00129793, No Iterations 5
DILUPBiCGStab:  Solving for Uy:  solution singularity
DILUPBiCGStab:  Solving for Uz:  solution singularity
linear solve U 5507396
Initializing PETSc
PETSc-cg:  Solving for p, Initial residual = 1, Final residual = 9.89507e-05, No Iterations 3256
linear solve p 672360951
time step continuity errors : sum local = 2.40978e-10, global = -1.41161e-22, cumulative = -1.41161e-22
PETSc-cg:  Solving for p, Initial residual = 0.717562, Final residual = 9.87777e-05, No Iterations 3237
linear solve p 663375016
time step continuity errors : sum local = 3.23895e-10, global = -3.75721e-23, cumulative = -1.78733e-22
ExecutionTime = 1374.11 s  ClockTime = 1377 s

Time = 5e-05

Courant Number mean: 0.0011675 max: 0.0751295
DILUPBiCGStab:  Solving for Ux, Initial residual = 0.159862, Final residual = 0.000765609, No Iterations 5
DILUPBiCGStab:  Solving for Uy, Initial residual = 0.348665, Final residual = 0.000764212, No Iterations 5
DILUPBiCGStab:  Solving for Uz, Initial residual = 0.996846, Final residual = 0.00288998, No Iterations 5
linear solve U 11136073
PETSc-cg:  Solving for p, Initial residual = 0.66011, Final residual = 9.94527e-05, No Iterations 3179
linear solve p 651294427
time step continuity errors : sum local = 3.5461e-10, global = -9.32018e-23, cumulative = -2.71935e-22
PETSc-cg:  Solving for p, Initial residual = 0.585569, Final residual = 9.90222e-05, No Iterations 3174
linear solve p 650359760
time step continuity errors : sum local = 3.592e-10, global = -1.21335e-23, cumulative = -2.84068e-22
ExecutionTime = 2692.05 s  ClockTime = 2698 s

Time = 7.5e-05

Courant Number mean: 0.00178069 max: 0.0870163
DILUPBiCGStab:  Solving for Ux, Initial residual = 0.0661516, Final residual = 0.000217534, No Iterations 5
DILUPBiCGStab:  Solving for Uy, Initial residual = 0.138205, Final residual = 0.000221784, No Iterations 5
DILUPBiCGStab:  Solving for Uz, Initial residual = 0.430544, Final residual = 0.00150134, No Iterations 5
linear solve U 11112649
PETSc-cg:  Solving for p, Initial residual = 0.560402, Final residual = 9.99101e-05, No Iterations 3133
linear solve p 641915247
time step continuity errors : sum local = 2.54841e-10, global = -2.07172e-23, cumulative = -3.04786e-22
PETSc-cg:  Solving for p, Initial residual = 0.502844, Final residual = 9.98981e-05, No Iterations 3123
linear solve p 639738136
time step continuity errors : sum local = 2.49441e-10, global = -2.63446e-23, cumulative = -3.3113e-22
ExecutionTime = 3990.11 s  ClockTime = 3999 s

Time = 0.0001

Courant Number mean: 0.00220792 max: 0.0903158
DILUPBiCGStab:  Solving for Ux, Initial residual = 0.0436959, Final residual = 9.59216e-05, No Iterations 5
DILUPBiCGStab:  Solving for Uy, Initial residual = 0.0872205, Final residual = 9.14339e-05, No Iterations 5
DILUPBiCGStab:  Solving for Uz, Initial residual = 0.132629, Final residual = 0.000316229, No Iterations 5
linear solve U 11143463
PETSc-cg:  Solving for p, Initial residual = 0.324283, Final residual = 9.92207e-05, No Iterations 1487
linear solve p 305075943
time step continuity errors : sum local = 2.2991e-10, global = 4.11264e-24, cumulative = -3.27018e-22
PETSc-cg:  Solving for p, Initial residual = 0.269623, Final residual = 9.72581e-05, No Iterations 1466
linear solve p 300806839
time step continuity errors : sum local = 2.16787e-10, global = -5.16729e-24, cumulative = -3.32185e-22
ExecutionTime = 4613.92 s  ClockTime = 4624 s

Time = 0.000125

Courant Number mean: 0.00255369 max: 0.091904
DILUPBiCGStab:  Solving for Ux, Initial residual = 0.0332586, Final residual = 5.84591e-05, No Iterations 5
DILUPBiCGStab:  Solving for Uy, Initial residual = 0.063027, Final residual = 5.58853e-05, No Iterations 5
DILUPBiCGStab:  Solving for Uz, Initial residual = 0.0912409, Final residual = 0.000182337, No Iterations 5
linear solve U 14969405
PETSc-cg:  Solving for p, Initial residual = 0.217551, Final residual = 9.9541e-05, No Iterations 1436
linear solve p 294644181
time step continuity errors : sum local = 1.93126e-10, global = -2.71289e-23, cumulative = -3.59314e-22
PETSc-cg:  Solving for p, Initial residual = 0.183398, Final residual = 9.76982e-05, No Iterations 1433
linear solve p 294068821
time step continuity errors : sum local = 1.86481e-10, global = -3.25234e-23, cumulative = -3.91837e-22
ExecutionTime = 5224.44 s  ClockTime = 5236 s

Time = 0.00015

Courant Number mean: 0.00284891 max: 0.0928886
DILUPBiCGStab:  Solving for Ux, Initial residual = 0.0270516, Final residual = 3.89948e-05, No Iterations 5
DILUPBiCGStab:  Solving for Uy, Initial residual = 0.0495027, Final residual = 2.24552e-05, No Iterations 5
DILUPBiCGStab:  Solving for Uz, Initial residual = 0.0795312, Final residual = 0.000127693, No Iterations 5
linear solve U 11133644
PETSc-cg:  Solving for p, Initial residual = 0.130548, Final residual = 9.89339e-05, No Iterations 1450
linear solve p 297591085
time step continuity errors : sum local = 1.98364e-10, global = -1.17356e-24, cumulative = -3.93011e-22
PETSc-cg:  Solving for p, Initial residual = 0.108005, Final residual = 9.88619e-05, No Iterations 1374
linear solve p 281987385
time step continuity errors : sum local = 1.89084e-10, global = -4.46923e-23, cumulative = -4.37703e-22
ExecutionTime = 5821.96 s  ClockTime = 5835 s

Time = 0.000175

Courant Number mean: 0.00310937 max: 0.0935745
DILUPBiCGStab:  Solving for Ux, Initial residual = 0.0228867, Final residual = 2.81246e-05, No Iterations 5
DILUPBiCGStab:  Solving for Uy, Initial residual = 0.0407734, Final residual = 2.09597e-05, No Iterations 5
DILUPBiCGStab:  Solving for Uz, Initial residual = 0.067562, Final residual = 8.40193e-05, No Iterations 5
linear solve U 11104721
PETSc-cg:  Solving for p, Initial residual = 0.0895574, Final residual = 9.80571e-05, No Iterations 1427
linear solve p 292869401
time step continuity errors : sum local = 1.82823e-10, global = -6.27029e-23, cumulative = -5.00406e-22
PETSc-cg:  Solving for p, Initial residual = 0.0748063, Final residual = 9.9684e-05, No Iterations 1379
linear solve p 283017212
time step continuity errors : sum local = 1.79759e-10, global = 1.22567e-23, cumulative = -4.88149e-22
ExecutionTime = 6415.78 s  ClockTime = 6430 s

Time = 0.0002

Courant Number mean: 0.0033439 max: 0.0940888
DILUPBiCGStab:  Solving for Ux, Initial residual = 0.0198969, Final residual = 2.15988e-05, No Iterations 5
DILUPBiCGStab:  Solving for Uy, Initial residual = 0.0346133, Final residual = 1.11348e-05, No Iterations 5
DILUPBiCGStab:  Solving for Uz, Initial residual = 0.0604526, Final residual = 6.42004e-05, No Iterations 5
linear solve U 14902278
PETSc-cg:  Solving for p, Initial residual = 0.0577835, Final residual = 9.95005e-05, No Iterations 2976
linear solve p 609834132
time step continuity errors : sum local = 1.76406e-10, global = 1.05339e-23, cumulative = -4.77615e-22
PETSc-cg:  Solving for p, Initial residual = 0.049489, Final residual = 9.86372e-05, No Iterations 1441
linear solve p 295726152
time step continuity errors : sum local = 1.90357e-10, global = -4.33262e-23, cumulative = -5.20942e-22
ExecutionTime = 7342.35 s  ClockTime = 7359 s

Time = 0.000225

Courant Number mean: 0.00355823 max: 0.0944923
DILUPBiCGStab:  Solving for Ux, Initial residual = 0.0176081, Final residual = 1.68534e-05, No Iterations 5
DILUPBiCGStab:  Solving for Uy, Initial residual = 0.0301128, Final residual = 1.08686e-05, No Iterations 5
DILUPBiCGStab:  Solving for Uz, Initial residual = 0.0552268, Final residual = 6.48221e-05, No Iterations 5
linear solve U 11118919
PETSc-cg:  Solving for p, Initial residual = 0.0428095, Final residual = 9.98543e-05, No Iterations 2957
linear solve p 605838417
time step continuity errors : sum local = 1.75595e-10, global = -5.47898e-23, cumulative = -5.75731e-22
PETSc-cg:  Solving for p, Initial residual = 0.0370124, Final residual = 9.98897e-05, No Iterations 2942
linear solve p 602996499
time step continuity errors : sum local = 1.7571e-10, global = 2.09423e-23, cumulative = -5.54789e-22
ExecutionTime = 8567.7 s  ClockTime = 8587 s

Time = 0.00025

Courant Number mean: 0.00375632 max: 0.09482
DILUPBiCGStab:  Solving for Ux, Initial residual = 0.0158226, Final residual = 1.35924e-05, No Iterations 5
DILUPBiCGStab:  Solving for Uy, Initial residual = 0.0265936, Final residual = 7.76382e-06, No Iterations 5
DILUPBiCGStab:  Solving for Uz, Initial residual = 0.046888, Final residual = 4.21981e-05, No Iterations 5
linear solve U 11113055
PETSc-cg:  Solving for p, Initial residual = 0.0312094, Final residual = 9.98524e-05, No Iterations 1274
linear solve p 261463872
time step continuity errors : sum local = 1.88959e-10, global = -6.30415e-23, cumulative = -6.17831e-22
PETSc-cg:  Solving for p, Initial residual = 0.0277054, Final residual = 9.99961e-05, No Iterations 1238
linear solve p 254197587
time step continuity errors : sum local = 1.8103e-10, global = -3.88646e-24, cumulative = -6.21717e-22
ExecutionTime = 9101.44 s  ClockTime = 9122 s

Time = 0.000275

Courant Number mean: 0.00394082 max: 0.095093
DILUPBiCGStab:  Solving for Ux, Initial residual = 0.0143651, Final residual = 1.11251e-05, No Iterations 5
DILUPBiCGStab:  Solving for Uy, Initial residual = 0.0238346, Final residual = 7.29809e-06, No Iterations 5
DILUPBiCGStab:  Solving for Uz, Initial residual = 0.043416, Final residual = 3.68643e-05, No Iterations 5
linear solve U 14950196
PETSc-cg:  Solving for p, Initial residual = 0.0250656, Final residual = 9.9966e-05, No Iterations 1307
linear solve p 268259441
time step continuity errors : sum local = 1.82422e-10, global = -1.9864e-23, cumulative = -6.41581e-22
PETSc-cg:  Solving for p, Initial residual = 0.0226289, Final residual = 9.95582e-05, No Iterations 1254
linear solve p 257491460
time step continuity errors : sum local = 1.74458e-10, global = 4.15405e-23, cumulative = -6.0004e-22
ExecutionTime = 9649.08 s  ClockTime = 9670 s

Time = 0.0003

Courant Number mean: 0.00411384 max: 0.0953249
DILUPBiCGStab:  Solving for Ux, Initial residual = 0.0131703, Final residual = 9.29746e-06, No Iterations 5
DILUPBiCGStab:  Solving for Uy, Initial residual = 0.0215628, Final residual = 6.13358e-06, No Iterations 5
DILUPBiCGStab:  Solving for Uz, Initial residual = 0.0406567, Final residual = 3.32809e-05, No Iterations 5
linear solve U 11135066
PETSc-cg:  Solving for p, Initial residual = 0.0200159, Final residual = 9.93305e-05, No Iterations 1435
linear solve p 294544420
time step continuity errors : sum local = 1.9094e-10, global = -1.42133e-23, cumulative = -6.14254e-22
PETSc-cg:  Solving for p, Initial residual = 0.018495, Final residual = 9.84852e-05, No Iterations 1348
linear solve p 276711401
time step continuity errors : sum local = 1.79072e-10, global = 4.31284e-23, cumulative = -5.71125e-22
ExecutionTime = 10238.3 s  ClockTime = 10261 s

Time = 0.000325

Courant Number mean: 0.0042771 max: 0.0955252
DILUPBiCGStab:  Solving for Ux, Initial residual = 0.0121517, Final residual = 7.89035e-06, No Iterations 5
DILUPBiCGStab:  Solving for Uy, Initial residual = 0.019712, Final residual = 5.60851e-06, No Iterations 5
DILUPBiCGStab:  Solving for Uz, Initial residual = 0.037745, Final residual = 3.31313e-05, No Iterations 5
linear solve U 11091324
PETSc-cg:  Solving for p, Initial residual = 0.0174886, Final residual = 9.98856e-05, No Iterations 1368
linear solve p 280748203
time step continuity errors : sum local = 1.86344e-10, global = 8.81852e-24, cumulative = -5.62307e-22
PETSc-cg:  Solving for p, Initial residual = 0.0162739, Final residual = 9.99443e-05, No Iterations 1276
linear solve p 261972290
time step continuity errors : sum local = 1.75966e-10, global = 1.19543e-22, cumulative = -4.42764e-22
ExecutionTime = 10799 s  ClockTime = 10823 s

Time = 0.00035

Courant Number mean: 0.00443178 max: 0.0957003
DILUPBiCGStab:  Solving for Ux, Initial residual = 0.0112947, Final residual = 6.80952e-06, No Iterations 5
DILUPBiCGStab:  Solving for Uy, Initial residual = 0.0181171, Final residual = 4.97979e-06, No Iterations 5
DILUPBiCGStab:  Solving for Uz, Initial residual = 0.03533, Final residual = 3.21749e-05, No Iterations 5
linear solve U 14956580
================================================================================
hash: 026e1c554901966c07a98c97a7a66cf6
/*---------------------------------------------------------------------------*\
| =========                 |                                                 |
| \\      /  F ield         | OpenFOAM: The Open Source CFD Toolbox           |
|  \\    /   O peration     | Version:  2112                                  |
|   \\  /    A nd           | Website:  www.openfoam.com                      |
|    \\/     M anipulation  |                                                 |
\*---------------------------------------------------------------------------*/
Build  : d44c8318f0-20220111 OPENFOAM=2112 version=v2112
Arch   : "LSB;label=32;scalar=64"
Exec   : icoFoam -parallel
Date   : Aug 05 2022
Time   : 13:46:31
Host   : hkn0633.localdomain
PID    : 793615
I/O    : uncollated
Case   : /hkfs/work/workspace/scratch/eq4036-lidDrivenCavity/single_node/mesh/400/matrix_solver/CG_NoPrecond_Ginkgo_CUDA/mpiRank_gko/4/base
nProcs : 4
Hosts  :
(
    (hkn0633.localdomain 4)
)
Pstream initialized with:
    floatTransfer      : 0
    nProcsSimpleSum    : 0
    commsType          : nonBlocking
    polling iterations : 0
trapFpe: Floating point exception trapping enabled (FOAM_SIGFPE).
fileModificationChecking : Monitoring run-time modified files using timeStampMaster (fileModificationSkew 5, maxFileModificationPolls 20)
allowSystemOperations : Allowing user-supplied system call operations

// * * * * * * * * * * * * * * * * * * * * * * * * * * * * * * * * * * * * * //
Create time

Create mesh for time = 0


PISO: Operating solver in PISO mode

Reading transportProperties

Reading field p

Reading field U

Reading/calculating face flux field phi


Starting time loop

Time = 2.5e-05

Courant Number mean: 0 max: 0
DILUPBiCGStab:  Solving for Ux, Initial residual = 1, Final residual = 0.00118713, No Iterations 5
DILUPBiCGStab:  Solving for Uy:  solution singularity
DILUPBiCGStab:  Solving for Uz:  solution singularity
linear solve U 11050662
[OGL LOG][Proc: 0]global_index_init: 5.006 [ms]
[OGL LOG][Proc: 0]global_index_init: 0.002 [ms]
[OGL LOG][Proc: 0]init_host_sparsity_pattern: 1.18731e+06 [ms]
[OGL LOG][Proc: 0]update_host_matrix_data: 436.09 [ms]
[OGL LOG][Proc: 0]convert_coo_to_csr: 1734.69 [ms]
[OGL LOG][lduLduBase.H:153] Initialising OGL
	Version:  484b851
	branch: HEAD 
	Ginkgo version: 1.5.0(develop)
	MPI is GPU aware: 1)
	Forces host buffer based communication: 0
[OGL LOG][Proc: 0]gather_global_matrix: 0.005 [ms]
[OGL LOG][Proc: 0]generate_distributed_matrix: 247.664 [ms]
[OGL LOG][Proc: 0]init_precond: 0.073 [ms]
[OGL LOG][Proc: 0]generate_solver: 0.018 [ms]
[OGL LOG][Proc: 0]solve: 13823 [ms]
[OGL LOG][Proc: 0]copy_x_back: 45.256 [ms]
[OGL LOG][lduLduBase.H:380] 
Statistics:
	Time per iteration: 4244 [mu s]
	Time per iteration and DOF: 0.066312 [ns]
	Retrieve results bandwith 2.828000 [GByte/s]
nonecudaGKOCG:  Solving for p, Initial residual = 1, Final residual = 9.99662e-05, No Iterations 3257
linear solve p 1206131566
time step continuity errors : sum local = 2.41015e-10, global = 1.49604e-23, cumulative = 1.49604e-23
[OGL LOG][Proc: 0]global_index_init: 0.029 [ms]
[OGL LOG][Proc: 0]global_index_init: 0.001 [ms]
[OGL LOG][Proc: 0]update_host_matrix_data: 432.407 [ms]
[OGL LOG][Proc: 0]gather_global_matrix: 0 [ms]
[OGL LOG][Proc: 0]generate_distributed_matrix: 220.659 [ms]
[OGL LOG][Proc: 0]init_precond: 0.031 [ms]
[OGL LOG][Proc: 0]generate_solver: 0.001 [ms]
[OGL LOG][Proc: 0]solve: 13296.1 [ms]
[OGL LOG][Proc: 0]copy_x_back: 62.911 [ms]
[OGL LOG][lduLduBase.H:380] 
Statistics:
	Time per iteration: 4089 [mu s]
	Time per iteration and DOF: 0.063891 [ns]
	Retrieve results bandwith 2.034000 [GByte/s]
nonecudaGKOCG:  Solving for p, Initial residual = 0.716144, Final residual = 7.57893e-05, No Iterations 3251
linear solve p 14131850
time step continuity errors : sum local = 2.46575e-10, global = -2.22638e-23, cumulative = -7.30346e-24
ExecutionTime = 1299.57 s  ClockTime = 1302 s

Time = 5e-05

Courant Number mean: 0.00116777 max: 0.0751289
DILUPBiCGStab:  Solving for Ux, Initial residual = 0.159858, Final residual = 0.000699206, No Iterations 5
DILUPBiCGStab:  Solving for Uy, Initial residual = 0.348607, Final residual = 0.000549934, No Iterations 5
DILUPBiCGStab:  Solving for Uz, Initial residual = 0.997113, Final residual = 0.00258422, No Iterations 5
linear solve U 22255735
[OGL LOG][Proc: 0]global_index_init: 0.01 [ms]
[OGL LOG][Proc: 0]global_index_init: 0.001 [ms]
[OGL LOG][Proc: 0]update_host_matrix_data: 431.966 [ms]
[OGL LOG][Proc: 0]gather_global_matrix: 0 [ms]
[OGL LOG][Proc: 0]generate_distributed_matrix: 219.069 [ms]
[OGL LOG][Proc: 0]init_precond: 0.041 [ms]
[OGL LOG][Proc: 0]generate_solver: 0.002 [ms]
[OGL LOG][Proc: 0]solve: 13284 [ms]
[OGL LOG][Proc: 0]copy_x_back: 63.199 [ms]
[OGL LOG][lduLduBase.H:380] 
Statistics:
	Time per iteration: 4086 [mu s]
	Time per iteration and DOF: 0.063844 [ns]
	Retrieve results bandwith 2.025000 [GByte/s]
nonecudaGKOCG:  Solving for p, Initial residual = 0.654917, Final residual = 4.2093e-05, No Iterations 3251
linear solve p 14151207
time step continuity errors : sum local = 1.47808e-10, global = 5.34743e-24, cumulative = -1.95603e-24
[OGL LOG][Proc: 0]global_index_init: 0.014 [ms]
[OGL LOG][Proc: 0]global_index_init: 0.001 [ms]
[OGL LOG][Proc: 0]update_host_matrix_data: 434.553 [ms]
[OGL LOG][Proc: 0]gather_global_matrix: 0 [ms]
[OGL LOG][Proc: 0]generate_distributed_matrix: 208.947 [ms]
[OGL LOG][Proc: 0]init_precond: 0.037 [ms]
[OGL LOG][Proc: 0]generate_solver: 0.002 [ms]
[OGL LOG][Proc: 0]solve: 13286.5 [ms]
[OGL LOG][Proc: 0]copy_x_back: 64.404 [ms]
[OGL LOG][lduLduBase.H:380] 
Statistics:
	Time per iteration: 4086 [mu s]
	Time per iteration and DOF: 0.063844 [ns]
	Retrieve results bandwith 1.987000 [GByte/s]
nonecudaGKOCG:  Solving for p, Initial residual = 0.580445, Final residual = 3.65549e-05, No Iterations 3251
linear solve p 14134944
time step continuity errors : sum local = 1.30574e-10, global = 5.57216e-25, cumulative = -1.39882e-24
ExecutionTime = 1365.79 s  ClockTime = 1368 s

Time = 7.5e-05

Courant Number mean: 0.00178106 max: 0.0870165
DILUPBiCGStab:  Solving for Ux, Initial residual = 0.0661401, Final residual = 0.000197633, No Iterations 5
DILUPBiCGStab:  Solving for Uy, Initial residual = 0.138167, Final residual = 0.000139213, No Iterations 5
DILUPBiCGStab:  Solving for Uz, Initial residual = 0.426941, Final residual = 0.00125425, No Iterations 5
linear solve U 22198491
[OGL LOG][Proc: 0]global_index_init: 0.006 [ms]
[OGL LOG][Proc: 0]global_index_init: 0.001 [ms]
[OGL LOG][Proc: 0]update_host_matrix_data: 431.429 [ms]
[OGL LOG][Proc: 0]gather_global_matrix: 0 [ms]
[OGL LOG][Proc: 0]generate_distributed_matrix: 221.508 [ms]
[OGL LOG][Proc: 0]init_precond: 0.03 [ms]
[OGL LOG][Proc: 0]generate_solver: 0.001 [ms]
[OGL LOG][Proc: 0]solve: 12798.3 [ms]
[OGL LOG][Proc: 0]copy_x_back: 63.371 [ms]
[OGL LOG][lduLduBase.H:380] 
Statistics:
	Time per iteration: 4100 [mu s]
	Time per iteration and DOF: 0.064062 [ns]
	Retrieve results bandwith 2.019000 [GByte/s]
nonecudaGKOCG:  Solving for p, Initial residual = 0.556719, Final residual = 9.12387e-05, No Iterations 3121
linear solve p 13666872
time step continuity errors : sum local = 2.30742e-10, global = 2.53549e-23, cumulative = 2.39561e-23
[OGL LOG][Proc: 0]global_index_init: 0.007 [ms]
[OGL LOG][Proc: 0]global_index_init: 0.001 [ms]
[OGL LOG][Proc: 0]update_host_matrix_data: 434.74 [ms]
[OGL LOG][Proc: 0]gather_global_matrix: 0 [ms]
[OGL LOG][Proc: 0]generate_distributed_matrix: 213.203 [ms]
[OGL LOG][Proc: 0]init_precond: 0.028 [ms]
[OGL LOG][Proc: 0]generate_solver: 0.001 [ms]
[OGL LOG][Proc: 0]solve: 12701.7 [ms]
[OGL LOG][Proc: 0]copy_x_back: 63.617 [ms]
[OGL LOG][lduLduBase.H:380] 
Statistics:
	Time per iteration: 4095 [mu s]
	Time per iteration and DOF: 0.063984 [ns]
	Retrieve results bandwith 2.012000 [GByte/s]
nonecudaGKOCG:  Solving for p, Initial residual = 0.499621, Final residual = 9.28536e-05, No Iterations 3101
linear solve p 13568304
time step continuity errors : sum local = 2.29977e-10, global = 1.09807e-23, cumulative = 3.49368e-23
ExecutionTime = 1430.83 s  ClockTime = 1434 s

Time = 0.0001

Courant Number mean: 0.00220834 max: 0.0903159
DILUPBiCGStab:  Solving for Ux, Initial residual = 0.0436883, Final residual = 8.49378e-05, No Iterations 5
DILUPBiCGStab:  Solving for Uy, Initial residual = 0.0871973, Final residual = 5.74937e-05, No Iterations 5
DILUPBiCGStab:  Solving for Uz, Initial residual = 0.132512, Final residual = 0.00024808, No Iterations 5
linear solve U 22332154
[OGL LOG][Proc: 0]global_index_init: 0.007 [ms]
[OGL LOG][Proc: 0]global_index_init: 0.001 [ms]
[OGL LOG][Proc: 0]update_host_matrix_data: 436.911 [ms]
[OGL LOG][Proc: 0]gather_global_matrix: 0 [ms]
[OGL LOG][Proc: 0]generate_distributed_matrix: 225.217 [ms]
[OGL LOG][Proc: 0]init_precond: 0.03 [ms]
[OGL LOG][Proc: 0]generate_solver: 0.001 [ms]
[OGL LOG][Proc: 0]solve: 12708.3 [ms]
[OGL LOG][Proc: 0]copy_x_back: 63.85 [ms]
[OGL LOG][lduLduBase.H:380] 
Statistics:
	Time per iteration: 4098 [mu s]
	Time per iteration and DOF: 0.064031 [ns]
	Retrieve results bandwith 2.004000 [GByte/s]
nonecudaGKOCG:  Solving for p, Initial residual = 0.320064, Final residual = 6.31045e-05, No Iterations 3101
linear solve p 13570832
time step continuity errors : sum local = 1.35798e-10, global = -2.87147e-23, cumulative = 6.22211e-24
[OGL LOG][Proc: 0]global_index_init: 0.007 [ms]
[OGL LOG][Proc: 0]global_index_init: 0.001 [ms]
[OGL LOG][Proc: 0]update_host_matrix_data: 436.758 [ms]
[OGL LOG][Proc: 0]gather_global_matrix: 0 [ms]
[OGL LOG][Proc: 0]generate_distributed_matrix: 210.16 [ms]
[OGL LOG][Proc: 0]init_precond: 0.031 [ms]
[OGL LOG][Proc: 0]generate_solver: 0.001 [ms]
[OGL LOG][Proc: 0]solve: 12723.9 [ms]
[OGL LOG][Proc: 0]copy_x_back: 63.293 [ms]
[OGL LOG][lduLduBase.H:380] 
Statistics:
	Time per iteration: 4103 [mu s]
	Time per iteration and DOF: 0.064109 [ns]
	Retrieve results bandwith 2.022000 [GByte/s]
nonecudaGKOCG:  Solving for p, Initial residual = 0.265606, Final residual = 5.48244e-05, No Iterations 3101
linear solve p 13566730
time step continuity errors : sum local = 1.18857e-10, global = -3.84958e-24, cumulative = 2.37253e-24
ExecutionTime = 1495.88 s  ClockTime = 1499 s

Time = 0.000125

Courant Number mean: 0.00255413 max: 0.0919042
DILUPBiCGStab:  Solving for Ux, Initial residual = 0.0332573, Final residual = 5.10929e-05, No Iterations 5
DILUPBiCGStab:  Solving for Uy, Initial residual = 0.0629924, Final residual = 3.67497e-05, No Iterations 5
DILUPBiCGStab:  Solving for Uz, Initial residual = 0.0875516, Final residual = 0.000132997, No Iterations 5
linear solve U 22191081
[OGL LOG][Proc: 0]global_index_init: 0.007 [ms]
[OGL LOG][Proc: 0]global_index_init: 0.001 [ms]
[OGL LOG][Proc: 0]update_host_matrix_data: 431.721 [ms]
[OGL LOG][Proc: 0]gather_global_matrix: 0 [ms]
[OGL LOG][Proc: 0]generate_distributed_matrix: 220.929 [ms]
[OGL LOG][Proc: 0]init_precond: 0.036 [ms]
[OGL LOG][Proc: 0]generate_solver: 0.001 [ms]
[OGL LOG][Proc: 0]solve: 12728.9 [ms]
[OGL LOG][Proc: 0]copy_x_back: 62.979 [ms]
[OGL LOG][lduLduBase.H:380] 
Statistics:
	Time per iteration: 4104 [mu s]
	Time per iteration and DOF: 0.064125 [ns]
	Retrieve results bandwith 2.032000 [GByte/s]
nonecudaGKOCG:  Solving for p, Initial residual = 0.213874, Final residual = 5.90674e-05, No Iterations 3101
linear solve p 13580488
time step continuity errors : sum local = 1.12662e-10, global = 3.63309e-23, cumulative = 3.87034e-23
[OGL LOG][Proc: 0]global_index_init: 0.007 [ms]
[OGL LOG][Proc: 0]global_index_init: 0.001 [ms]
[OGL LOG][Proc: 0]update_host_matrix_data: 434.993 [ms]
[OGL LOG][Proc: 0]gather_global_matrix: 0 [ms]
[OGL LOG][Proc: 0]generate_distributed_matrix: 206.639 [ms]
[OGL LOG][Proc: 0]init_precond: 0.029 [ms]
[OGL LOG][Proc: 0]generate_solver: 0.001 [ms]
[OGL LOG][Proc: 0]solve: 12702.9 [ms]
[OGL LOG][Proc: 0]copy_x_back: 64.109 [ms]
[OGL LOG][lduLduBase.H:380] 
Statistics:
	Time per iteration: 4096 [mu s]
	Time per iteration and DOF: 0.064000 [ns]
	Retrieve results bandwith 1.996000 [GByte/s]
nonecudaGKOCG:  Solving for p, Initial residual = 0.180082, Final residual = 5.36237e-05, No Iterations 3101
linear solve p 13542374
time step continuity errors : sum local = 1.01872e-10, global = 1.69112e-23, cumulative = 5.56146e-23
ExecutionTime = 1560.9 s  ClockTime = 1564 s

Time = 0.00015

Courant Number mean: 0.00284935 max: 0.0928888
DILUPBiCGStab:  Solving for Ux, Initial residual = 0.0270451, Final residual = 3.35965e-05, No Iterations 5
DILUPBiCGStab:  Solving for Uy, Initial residual = 0.0494931, Final residual = 1.56885e-05, No Iterations 5
DILUPBiCGStab:  Solving for Uz, Initial residual = 0.0765412, Final residual = 9.85666e-05, No Iterations 5
linear solve U 22260212
[OGL LOG][Proc: 0]global_index_init: 0.008 [ms]
[OGL LOG][Proc: 0]global_index_init: 0.001 [ms]
[OGL LOG][Proc: 0]update_host_matrix_data: 433.503 [ms]
[OGL LOG][Proc: 0]gather_global_matrix: 0 [ms]
[OGL LOG][Proc: 0]generate_distributed_matrix: 220.644 [ms]
[OGL LOG][Proc: 0]init_precond: 0.033 [ms]
[OGL LOG][Proc: 0]generate_solver: 0.001 [ms]
[OGL LOG][Proc: 0]solve: 12712.3 [ms]
[OGL LOG][Proc: 0]copy_x_back: 64.17 [ms]
[OGL LOG][lduLduBase.H:380] 
Statistics:
	Time per iteration: 4099 [mu s]
	Time per iteration and DOF: 0.064047 [ns]
	Retrieve results bandwith 1.994000 [GByte/s]
nonecudaGKOCG:  Solving for p, Initial residual = 0.127254, Final residual = 2.89024e-05, No Iterations 3101
linear solve p 13565346
time step continuity errors : sum local = 5.34092e-11, global = -8.21948e-24, cumulative = 4.73952e-23
[OGL LOG][Proc: 0]global_index_init: 0.007 [ms]
[OGL LOG][Proc: 0]global_index_init: 0.001 [ms]
[OGL LOG][Proc: 0]update_host_matrix_data: 444.014 [ms]
[OGL LOG][Proc: 0]gather_global_matrix: 0 [ms]
[OGL LOG][Proc: 0]generate_distributed_matrix: 236.952 [ms]
[OGL LOG][Proc: 0]init_precond: 0.03 [ms]
[OGL LOG][Proc: 0]generate_solver: 0.001 [ms]
[OGL LOG][Proc: 0]solve: 12262.2 [ms]
[OGL LOG][Proc: 0]copy_x_back: 62.939 [ms]
[OGL LOG][lduLduBase.H:380] 
Statistics:
	Time per iteration: 4118 [mu s]
	Time per iteration and DOF: 0.064344 [ns]
	Retrieve results bandwith 2.033000 [GByte/s]
nonecudaGKOCG:  Solving for p, Initial residual = 0.104785, Final residual = 9.29527e-05, No Iterations 2977
linear solve p 13127001
time step continuity errors : sum local = 1.7199e-10, global = 2.16771e-23, cumulative = 6.90723e-23
ExecutionTime = 1625.48 s  ClockTime = 1629 s

Time = 0.000175

Courant Number mean: 0.00310981 max: 0.0935747
DILUPBiCGStab:  Solving for Ux, Initial residual = 0.0228865, Final residual = 2.37603e-05, No Iterations 5
DILUPBiCGStab:  Solving for Uy, Initial residual = 0.0407489, Final residual = 1.4234e-05, No Iterations 5
DILUPBiCGStab:  Solving for Uz, Initial residual = 0.0654786, Final residual = 6.31407e-05, No Iterations 5
linear solve U 22206186
[OGL LOG][Proc: 0]global_index_init: 0.009 [ms]
[OGL LOG][Proc: 0]global_index_init: 0.001 [ms]
[OGL LOG][Proc: 0]update_host_matrix_data: 433.356 [ms]
[OGL LOG][Proc: 0]gather_global_matrix: 0 [ms]
[OGL LOG][Proc: 0]generate_distributed_matrix: 221.144 [ms]
[OGL LOG][Proc: 0]init_precond: 0.031 [ms]
[OGL LOG][Proc: 0]generate_solver: 0.001 [ms]
[OGL LOG][Proc: 0]solve: 12699.8 [ms]
[OGL LOG][Proc: 0]copy_x_back: 63.634 [ms]
[OGL LOG][lduLduBase.H:380] 
Statistics:
	Time per iteration: 4103 [mu s]
	Time per iteration and DOF: 0.064109 [ns]
	Retrieve results bandwith 2.011000 [GByte/s]
nonecudaGKOCG:  Solving for p, Initial residual = 0.0870622, Final residual = 3.2251e-05, No Iterations 3095
linear solve p 13556172
time step continuity errors : sum local = 5.78053e-11, global = 4.64286e-23, cumulative = 1.15501e-22
[OGL LOG][Proc: 0]global_index_init: 0.008 [ms]
[OGL LOG][Proc: 0]global_index_init: 0 [ms]
[OGL LOG][Proc: 0]update_host_matrix_data: 434.046 [ms]
[OGL LOG][Proc: 0]gather_global_matrix: 0 [ms]
[OGL LOG][Proc: 0]generate_distributed_matrix: 202.992 [ms]
[OGL LOG][Proc: 0]init_precond: 0.029 [ms]
[OGL LOG][Proc: 0]generate_solver: 0.001 [ms]
[OGL LOG][Proc: 0]solve: 12605.7 [ms]
[...]
/*---------------------------------------------------------------------------*\
| =========                 |                                                 |
| \\      /  F ield         | OpenFOAM: The Open Source CFD Toolbox           |
|  \\    /   O peration     | Version:  2112                                  |
|   \\  /    A nd           | Website:  www.openfoam.com                      |
|    \\/     M anipulation  |                                                 |
\*---------------------------------------------------------------------------*/
Build  : d44c8318f0-20220111 OPENFOAM=2112 version=v2112
Arch   : "LSB;label=32;scalar=64"
Exec   : icoFoam -parallel
Date   : Aug 05 2022
Time   : 13:49:50
Host   : hkn1154.localdomain
PID    : 500548
I/O    : uncollated
Case   : /hkfs/work/workspace/scratch/eq4036-lidDrivenCavity/single_node/mesh/100/matrix_solver/CG_NoPrecond_OpenFOAM_Default/mpiRank_of/76/base
nProcs : 76
Hosts  :
(
    (hkn1154.localdomain 76)
)
Pstream initialized with:
    floatTransfer      : 0
    nProcsSimpleSum    : 0
    commsType          : nonBlocking
    polling iterations : 0
trapFpe: Floating point exception trapping enabled (FOAM_SIGFPE).
fileModificationChecking : Monitoring run-time modified files using timeStampMaster (fileModificationSkew 5, maxFileModificationPolls 20)
allowSystemOperations : Allowing user-supplied system call operations

// * * * * * * * * * * * * * * * * * * * * * * * * * * * * * * * * * * * * * //
Create time

--> FOAM Warning : 
    From void* Foam::dlLibraryTable::openLibrary(const Foam::fileName&, bool)
    in file db/dynamicLibrary/dlLibraryTable/dlLibraryTable.C at line 188
    Could not load "libpetscFoam.so"
libcuda.so.1: cannot open shared object file: No such file or directory
Create mesh for time = 0


PISO: Operating solver in PISO mode

Reading transportProperties

Reading field p

Reading field U

Reading/calculating face flux field phi


Starting time loop

Time = 0.0001

Courant Number mean: 0 max: 0
DILUPBiCGStab:  Solving for Ux, Initial residual = 1, Final residual = 4.24195e-05, No Iterations 5
DILUPBiCGStab:  Solving for Uy:  solution singularity
DILUPBiCGStab:  Solving for Uz:  solution singularity
linear solve U 13052
nonePCG:  Solving for p, Initial residual = 1, Final residual = 9.71466e-05, No Iterations 794
linear solve p 190006
time step continuity errors : sum local = 1.71636e-09, global = -3.44123e-22, cumulative = -3.44123e-22
nonePCG:  Solving for p, Initial residual = 0.559957, Final residual = 9.81636e-05, No Iterations 777
linear solve p 170433
time step continuity errors : sum local = 2.68518e-09, global = -2.25126e-22, cumulative = -5.69249e-22
ExecutionTime = 0.77 s  ClockTime = 2 s

Time = 0.0002

Courant Number mean: 0.00201328 max: 0.0540371
DILUPBiCGStab:  Solving for Ux, Initial residual = 0.216463, Final residual = 2.0656e-05, No Iterations 5
DILUPBiCGStab:  Solving for Uy, Initial residual = 0.309947, Final residual = 2.07625e-05, No Iterations 5
DILUPBiCGStab:  Solving for Uz, Initial residual = 0.981322, Final residual = 7.16958e-05, No Iterations 5
linear solve U 17723
nonePCG:  Solving for p, Initial residual = 0.381695, Final residual = 9.16596e-05, No Iterations 769
linear solve p 177399
time step continuity errors : sum local = 2.39727e-09, global = 5.80541e-22, cumulative = 1.12923e-23
nonePCG:  Solving for p, Initial residual = 0.284799, Final residual = 9.70455e-05, No Iterations 764
linear solve p 175039
time step continuity errors : sum local = 2.65935e-09, global = -4.11526e-22, cumulative = -4.00234e-22
ExecutionTime = 1.17 s  ClockTime = 2 s

Time = 0.0003

Courant Number mean: 0.00317975 max: 0.0721773
DILUPBiCGStab:  Solving for Ux, Initial residual = 0.0963259, Final residual = 8.5543e-06, No Iterations 5
DILUPBiCGStab:  Solving for Uy, Initial residual = 0.140695, Final residual = 7.16239e-06, No Iterations 5
DILUPBiCGStab:  Solving for Uz, Initial residual = 0.205729, Final residual = 1.73224e-05, No Iterations 5
linear solve U 17732
nonePCG:  Solving for p, Initial residual = 0.128568, Final residual = 9.73992e-05, No Iterations 743
linear solve p 175769
time step continuity errors : sum local = 2.29503e-09, global = -1.75125e-21, cumulative = -2.15149e-21
nonePCG:  Solving for p, Initial residual = 0.0996026, Final residual = 9.4776e-05, No Iterations 737
linear solve p 179560
time step continuity errors : sum local = 2.26223e-09, global = -8.1734e-22, cumulative = -2.96883e-21
ExecutionTime = 1.56 s  ClockTime = 3 s

Time = 0.0004

Courant Number mean: 0.00397979 max: 0.0793325
DILUPBiCGStab:  Solving for Ux, Initial residual = 0.0593654, Final residual = 4.07886e-06, No Iterations 5
DILUPBiCGStab:  Solving for Uy, Initial residual = 0.0868106, Final residual = 3.52007e-06, No Iterations 5
DILUPBiCGStab:  Solving for Uz, Initial residual = 0.127109, Final residual = 6.65525e-06, No Iterations 5
linear solve U 26095
nonePCG:  Solving for p, Initial residual = 0.0642989, Final residual = 9.70822e-05, No Iterations 729
linear solve p 173675
time step continuity errors : sum local = 2.25082e-09, global = -1.59122e-21, cumulative = -4.56004e-21
nonePCG:  Solving for p, Initial residual = 0.0497339, Final residual = 9.73541e-05, No Iterations 720
linear solve p 163983
time step continuity errors : sum local = 2.29218e-09, global = -1.63742e-22, cumulative = -4.72378e-21
ExecutionTime = 1.95 s  ClockTime = 3 s

Time = 0.0005

Courant Number mean: 0.00460123 max: 0.082885
DILUPBiCGStab:  Solving for Ux, Initial residual = 0.0428603, Final residual = 1.60649e-06, No Iterations 5
DILUPBiCGStab:  Solving for Uy, Initial residual = 0.0618663, Final residual = 2.05086e-06, No Iterations 5
DILUPBiCGStab:  Solving for Uz, Initial residual = 0.0971584, Final residual = 4.1949e-06, No Iterations 5
linear solve U 18085
nonePCG:  Solving for p, Initial residual = 0.0389457, Final residual = 9.89917e-05, No Iterations 402
linear solve p 94575
time step continuity errors : sum local = 2.66536e-09, global = -2.24884e-21, cumulative = -6.97262e-21
nonePCG:  Solving for p, Initial residual = 0.0305765, Final residual = 9.85587e-05, No Iterations 339
linear solve p 76628
time step continuity errors : sum local = 2.4638e-09, global = -3.19083e-21, cumulative = -1.01634e-20
ExecutionTime = 2.16 s  ClockTime = 3 s

Time = 0.0006

Courant Number mean: 0.00511858 max: 0.0850107
DILUPBiCGStab:  Solving for Ux, Initial residual = 0.0336705, Final residual = 7.89158e-07, No Iterations 5
DILUPBiCGStab:  Solving for Uy, Initial residual = 0.0480502, Final residual = 1.39741e-06, No Iterations 5
DILUPBiCGStab:  Solving for Uz, Initial residual = 0.0802629, Final residual = 2.98583e-06, No Iterations 5
linear solve U 17901
nonePCG:  Solving for p, Initial residual = 0.0269247, Final residual = 9.74871e-05, No Iterations 341
linear solve p 79903
time step continuity errors : sum local = 2.54664e-09, global = -6.42792e-22, cumulative = -1.08062e-20
nonePCG:  Solving for p, Initial residual = 0.0213648, Final residual = 9.98096e-05, No Iterations 311
linear solve p 72831
time step continuity errors : sum local = 2.52661e-09, global = -1.73114e-21, cumulative = -1.25374e-20
ExecutionTime = 2.37 s  ClockTime = 3 s

Time = 0.0007

Courant Number mean: 0.00556491 max: 0.0864549
DILUPBiCGStab:  Solving for Ux, Initial residual = 0.027767, Final residual = 5.42585e-07, No Iterations 5
DILUPBiCGStab:  Solving for Uy, Initial residual = 0.0392382, Final residual = 1.07543e-06, No Iterations 5
DILUPBiCGStab:  Solving for Uz, Initial residual = 0.0677447, Final residual = 2.29915e-06, No Iterations 5
linear solve U 17854
nonePCG:  Solving for p, Initial residual = 0.0207712, Final residual = 9.71831e-05, No Iterations 301
linear solve p 71748
time step continuity errors : sum local = 2.59552e-09, global = -8.36486e-22, cumulative = -1.33739e-20
nonePCG:  Solving for p, Initial residual = 0.0165057, Final residual = 9.73691e-05, No Iterations 293
linear solve p 72647
time step continuity errors : sum local = 2.51882e-09, global = -2.17389e-21, cumulative = -1.55478e-20
ExecutionTime = 2.55 s  ClockTime = 4 s

Time = 0.0008

Courant Number mean: 0.00596223 max: 0.0875192
DILUPBiCGStab:  Solving for Ux, Initial residual = 0.0236246, Final residual = 4.34729e-07, No Iterations 5
DILUPBiCGStab:  Solving for Uy, Initial residual = 0.0331362, Final residual = 8.79632e-07, No Iterations 5
DILUPBiCGStab:  Solving for Uz, Initial residual = 0.0588701, Final residual = 1.89222e-06, No Iterations 5
linear solve U 18922
nonePCG:  Solving for p, Initial residual = 0.0166935, Final residual = 9.7696e-05, No Iterations 294
linear solve p 75536
time step continuity errors : sum local = 2.61869e-09, global = -2.00713e-21, cumulative = -1.75549e-20
nonePCG:  Solving for p, Initial residual = 0.0133966, Final residual = 9.89459e-05, No Iterations 287
linear solve p 66749
time step continuity errors : sum local = 2.5909e-09, global = -4.20001e-23, cumulative = -1.75969e-20
ExecutionTime = 2.74 s  ClockTime = 4 s

Time = 0.0009

Courant Number mean: 0.0063184 max: 0.0883466
DILUPBiCGStab:  Solving for Ux, Initial residual = 0.0205609, Final residual = 3.72402e-07, No Iterations 5
DILUPBiCGStab:  Solving for Uy, Initial residual = 0.0286503, Final residual = 7.45525e-07, No Iterations 5
DILUPBiCGStab:  Solving for Uz, Initial residual = 0.0520044, Final residual = 1.60422e-06, No Iterations 5
linear solve U 17899
nonePCG:  Solving for p, Initial residual = 0.0138985, Final residual = 9.88841e-05, No Iterations 288
linear solve p 67186
time step continuity errors : sum local = 2.66913e-09, global = 1.33176e-23, cumulative = -1.75836e-20
nonePCG:  Solving for p, Initial residual = 0.0112113, Final residual = 9.78896e-05, No Iterations 283
linear solve p 62157
time step continuity errors : sum local = 2.59565e-09, global = 1.49099e-22, cumulative = -1.74345e-20
ExecutionTime = 2.91 s  ClockTime = 4 s

Time = 0.001

Courant Number mean: 0.00664431 max: 0.089014
DILUPBiCGStab:  Solving for Ux, Initial residual = 0.0181849, Final residual = 3.29074e-07, No Iterations 5
DILUPBiCGStab:  Solving for Uy, Initial residual = 0.0252128, Final residual = 6.4589e-07, No Iterations 5
DILUPBiCGStab:  Solving for Uz, Initial residual = 0.046517, Final residual = 1.39178e-06, No Iterations 5
linear solve U 17399
nonePCG:  Solving for p, Initial residual = 0.0118843, Final residual = 9.92271e-05, No Iterations 285
linear solve p 65563
time step continuity errors : sum local = 2.69354e-09, global = 5.16574e-22, cumulative = -1.69179e-20
nonePCG:  Solving for p, Initial residual = 0.0096253, Final residual = 9.96231e-05, No Iterations 280
linear solve p 62339
time step continuity errors : sum local = 2.66261e-09, global = 2.04566e-21, cumulative = -1.48722e-20
ExecutionTime = 3.08 s  ClockTime = 4 s

Time = 0.0011

Courant Number mean: 0.00694526 max: 0.0895672
DILUPBiCGStab:  Solving for Ux, Initial residual = 0.0162983, Final residual = 2.95241e-07, No Iterations 5
DILUPBiCGStab:  Solving for Uy, Initial residual = 0.0224937, Final residual = 5.67881e-07, No Iterations 5
DILUPBiCGStab:  Solving for Uz, Initial residual = 0.0420352, Final residual = 1.22691e-06, No Iterations 5
linear solve U 17837
nonePCG:  Solving for p, Initial residual = 0.0102956, Final residual = 9.87005e-05, No Iterations 283
linear solve p 66761
time step continuity errors : sum local = 2.6965e-09, global = -2.01725e-21, cumulative = -1.68895e-20
nonePCG:  Solving for p, Initial residual = 0.00836473, Final residual = 9.51823e-05, No Iterations 278
linear solve p 62924
time step continuity errors : sum local = 2.57569e-09, global = -2.1728e-21, cumulative = -1.90623e-20
ExecutionTime = 3.26 s  ClockTime = 4 s

Time = 0.0012

Courant Number mean: 0.00722373 max: 0.0900355
DILUPBiCGStab:  Solving for Ux, Initial residual = 0.0147482, Final residual = 2.67135e-07, No Iterations 5
DILUPBiCGStab:  Solving for Uy, Initial residual = 0.0202892, Final residual = 5.04771e-07, No Iterations 5
DILUPBiCGStab:  Solving for Uz, Initial residual = 0.0383092, Final residual = 1.09456e-06, No Iterations 5
linear solve U 17985
nonePCG:  Solving for p, Initial residual = 0.00904951, Final residual = 9.76217e-05, No Iterations 279
linear solve p 64849
time step continuity errors : sum local = 2.68351e-09, global = -2.4232e-21, cumulative = -2.14855e-20
nonePCG:  Solving for p, Initial residual = 0.00738923, Final residual = 9.8681e-05, No Iterations 275
linear solve p 61668
time step continuity errors : sum local = 2.67913e-09, global = -2.4858e-21, cumulative = -2.39713e-20
ExecutionTime = 3.43 s  ClockTime = 5 s

Time = 0.0013

Courant Number mean: 0.00748295 max: 0.0904386
DILUPBiCGStab:  Solving for Ux, Initial residual = 0.0134669, Final residual = 2.43139e-07, No Iterations 5
DILUPBiCGStab:  Solving for Uy, Initial residual = 0.018466, Final residual = 4.52529e-07, No Iterations 5
DILUPBiCGStab:  Solving for Uz, Initial residual = 0.0351674, Final residual = 9.8615e-07, No Iterations 5
linear solve U 17678
nonePCG:  Solving for p, Initial residual = 0.0080965, Final residual = 9.7452e-05, No Iterations 276
linear solve p 64562
time step continuity errors : sum local = 2.69183e-09, global = -2.19707e-21, cumulative = -2.61684e-20
nonePCG:  Solving for p, Initial residual = 0.00663111, Final residual = 9.944e-05, No Iterations 271
linear solve p 60695
time step continuity errors : sum local = 2.71384e-09, global = -2.53225e-21, cumulative = -2.87006e-20
ExecutionTime = 3.59 s  ClockTime = 5 s

Time = 0.0014

Courant Number mean: 0.00772776 max: 0.0907902
DILUPBiCGStab:  Solving for Ux, Initial residual = 0.0123794, Final residual = 2.22327e-07, No Iterations 5
DILUPBiCGStab:  Solving for Uy, Initial residual = 0.0169331, Final residual = 4.08627e-07, No Iterations 5
DILUPBiCGStab:  Solving for Uz, Initial residual = 0.0324814, Final residual = 8.95786e-07, No Iterations 5
linear solve U 17595
nonePCG:  Solving for p, Initial residual = 0.00728135, Final residual = 9.83153e-05, No Iterations 274
linear solve p 65331
time step continuity errors : sum local = 2.72422e-09, global = -2.72496e-21, cumulative = -3.14256e-20
nonePCG:  Solving for p, Initial residual = 0.00598057, Final residual = 9.73157e-05, No Iterations 270
linear solve p 59932
time step continuity errors : sum local = 2.67553e-09, global = -1.79963e-21, cumulative = -3.32252e-20
ExecutionTime = 3.76 s  ClockTime = 5 s

Time = 0.0015

Courant Number mean: 0.00795854 max: 0.0911005
DILUPBiCGStab:  Solving for Ux, Initial residual = 0.011447, Final residual = 2.04116e-07, No Iterations 5
DILUPBiCGStab:  Solving for Uy, Initial residual = 0.0156265, Final residual = 3.7129e-07, No Iterations 5
DILUPBiCGStab:  Solving for Uz, Initial residual = 0.0301599, Final residual = 8.19146e-07, No Iterations 5
linear solve U 17570
nonePCG:  Solving for p, Initial residual = 0.00658156, Final residual = 9.81285e-05, No Iterations 271
linear solve p 62989
time step continuity errors : sum local = 2.72909e-09, global = -3.09308e-21, cumulative = -3.63183e-20
nonePCG:  Solving for p, Initial residual = 0.00542741, Final residual = 9.87953e-05, No Iterations 266
linear solve p 59758
time step continuity errors : sum local = 2.72421e-09, global = -1.39781e-21, cumulative = -3.77161e-20
ExecutionTime = 3.93 s  ClockTime = 5 s

Time = 0.0016

Courant Number mean: 0.00817642 max: 0.0913769
DILUPBiCGStab:  Solving for Ux, Initial residual = 0.0106406, Final residual = 1.88147e-07, No Iterations 5
DILUPBiCGStab:  Solving for Uy, Initial residual = 0.0144996, Final residual = 3.39252e-07, No Iterations 5
DILUPBiCGStab:  Solving for Uz, Initial residual = 0.0281346, Final residual = 7.53864e-07, No Iterations 5
linear solve U 17783
nonePCG:  Solving for p, Initial residual = 0.00603353, Final residual = 9.82127e-05, No Iterations 271
linear solve p 63032
time step continuity errors : sum local = 2.74056e-09, global = -3.01067e-21, cumulative = -4.07268e-20
nonePCG:  Solving for p, Initial residual = 0.00496622, Final residual = 9.48179e-05, No Iterations 265
linear solve p 63587
time step continuity errors : sum local = 2.63713e-09, global = -2.01907e-21, cumulative = -4.27458e-20
ExecutionTime = 4.1 s  ClockTime = 5 s

Time = 0.0017

Courant Number mean: 0.00838242 max: 0.0916251
DILUPBiCGStab:  Solving for Ux, Initial residual = 0.00993254, Final residual = 1.74057e-07, No Iterations 5
DILUPBiCGStab:  Solving for Uy, Initial residual = 0.0135178, Final residual = 3.11546e-07, No Iterations 5
DILUPBiCGStab:  Solving for Uz, Initial residual = 0.0263519, Final residual = 6.96736e-07, No Iterations 5
linear solve U 21309
nonePCG:  Solving for p, Initial residual = 0.00548984, Final residual = 9.96958e-05, No Iterations 266
linear solve p 69060
time step continuity errors : sum local = 2.78462e-09, global = -2.8455e-21, cumulative = -4.55913e-20
nonePCG:  Solving for p, Initial residual = 0.00454923, Final residual = 9.63767e-05, No Iterations 263
linear solve p 61553
time step continuity errors : sum local = 2.68506e-09, global = -1.27086e-21, cumulative = -4.68622e-20
ExecutionTime = 4.27 s  ClockTime = 5 s

Time = 0.0018

Courant Number mean: 0.00857949 max: 0.0918496
DILUPBiCGStab:  Solving for Ux, Initial residual = 0.00931113, Final residual = 1.61588e-07, No Iterations 5
DILUPBiCGStab:  Solving for Uy, Initial residual = 0.012655, Final residual = 2.87399e-07, No Iterations 5
DILUPBiCGStab:  Solving for Uz, Initial residual = 0.0247717, Final residual = 6.47283e-07, No Iterations 5
linear solve U 18906
nonePCG:  Solving for p, Initial residual = 0.00513515, Final residual = 9.95751e-05, No Iterations 264
linear solve p 65278
time step continuity errors : sum local = 2.78955e-09, global = -4.07407e-22, cumulative = -4.72696e-20
nonePCG:  Solving for p, Initial residual = 0.00426368, Final residual = 9.03789e-05, No Iterations 262
linear solve p 60930
time step continuity errors : sum local = 2.54558e-09, global = -3.06388e-21, cumulative = -5.03335e-20
ExecutionTime = 4.45 s  ClockTime = 6 s

Time = 0.0019

Courant Number mean: 0.00876806 max: 0.0920539
DILUPBiCGStab:  Solving for Ux, Initial residual = 0.00875826, Final residual = 1.50485e-07, No Iterations 5
DILUPBiCGStab:  Solving for Uy, Initial residual = 0.0118907, Final residual = 2.66211e-07, No Iterations 5
DILUPBiCGStab:  Solving for Uz, Initial residual = 0.023361, Final residual = 6.03406e-07, No Iterations 5
linear solve U 17703
nonePCG:  Solving for p, Initial residual = 0.00475306, Final residual = 9.87393e-05, No Iterations 265
linear solve p 64402
time step continuity errors : sum local = 2.77547e-09, global = -3.21595e-21, cumulative = -5.35494e-20
nonePCG:  Solving for p, Initial residual = 0.00394539, Final residual = 9.69478e-05, No Iterations 259
linear solve p 59966
time step continuity errors : sum local = 2.71584e-09, global = -3.50412e-21, cumulative = -5.70536e-20
ExecutionTime = 4.62 s  ClockTime = 6 s

Time = 0.002

Courant Number mean: 0.00894842 max: 0.0922409
DILUPBiCGStab:  Solving for Ux, Initial residual = 0.00826112, Final residual = 1.40546e-07, No Iterations 5
DILUPBiCGStab:  Solving for Uy, Initial residual = 0.011209, Final residual = 2.47526e-07, No Iterations 5
DILUPBiCGStab:  Solving for Uz, Initial residual = 0.0220947, Final residual = 5.64409e-07, No Iterations 5
linear solve U 18071
nonePCG:  Solving for p, Initial residual = 0.0043962, Final residual = 9.91219e-05, No Iterations 263
linear solve p 61197
time step continuity errors : sum local = 2.79092e-09, global = -3.46192e-21, cumulative = -6.05155e-20
nonePCG:  Solving for p, Initial residual = 0.00365204, Final residual = 9.78697e-05, No Iterations 255
linear solve p 59897
time step continuity errors : sum local = 2.74573e-09, global = -5.14918e-21, cumulative = -6.56647e-20
ExecutionTime = 4.78 s  ClockTime = 6 s

End

Finalising parallel run
================================================================================
