
============================= JOB FEEDBACK =============================

Job ID: 1744708
Cluster: hk
User/Group: eq4036/hk-project-test-fine
State: COMPLETED (exit code 0)
Partition: accelerated
Nodes: 1
Cores per node: 152
Nodelist: hkn0736
CPU Utilized: 08:59:39
CPU Efficiency: 1.31% of 28-14:32:00 core-walltime
Job Wall-clock time: 04:31:00
Starttime: Thu May 19 06:14:26 2022
Endtime: Thu May 19 10:45:26 2022
Memory Utilized: 187.29 GB
Memory Efficiency: 38.23% of 489.84 GB
Energy Consumed: 12659340 Joule / 3516.48333333333 Watthours
Average node power draw: 778.557195571956 Watt
hash: bb3eb83489ae4d8f6764ff69ac1ced59
/*---------------------------------------------------------------------------*\
| =========                 |                                                 |
| \\      /  F ield         | OpenFOAM: The Open Source CFD Toolbox           |
|  \\    /   O peration     | Version:  2112                                  |
|   \\  /    A nd           | Website:  www.openfoam.com                      |
|    \\/     M anipulation  |                                                 |
\*---------------------------------------------------------------------------*/
Build  : d44c8318f0-20220111 OPENFOAM=2112 version=v2112
Arch   : "LSB;label=32;scalar=64"
Exec   : icoFoam -parallel
Date   : May 19 2022
Time   : 06:14:49
Host   : hkn0736.localdomain
PID    : 3325187
I/O    : uncollated
Case   : /hkfs/work/workspace/scratch/eq4036-lidDrivenCavity/simple/Variation_mesh/500/Variation_matrix_solver/CG_NoPrecond_CUDA/Variation_mpiRank_gko/2/base
nProcs : 2
Hosts  :
(
    (hkn0736.localdomain 2)
)
Pstream initialized with:
    floatTransfer      : 0
    nProcsSimpleSum    : 0
    commsType          : nonBlocking
    polling iterations : 0
trapFpe: Floating point exception trapping enabled (FOAM_SIGFPE).
fileModificationChecking : Monitoring run-time modified files using timeStampMaster (fileModificationSkew 5, maxFileModificationPolls 20)
allowSystemOperations : Allowing user-supplied system call operations

// * * * * * * * * * * * * * * * * * * * * * * * * * * * * * * * * * * * * * //
Create time

Create mesh for time = 0


PISO: Operating solver in PISO mode

Reading transportProperties

Reading field p

Reading field U

Reading/calculating face flux field phi


Starting time loop

Time = 2e-05

Courant Number mean: 0 max: 0
DILUPBiCGStab:  Solving for Ux, Initial residual = 1, Final residual = 0.00221092, No Iterations 5
DILUPBiCGStab:  Solving for Uy:  solution singularity
DILUPBiCGStab:  Solving for Uz:  solution singularity
linear solve U 41142002
[OGL LOG][Proc: 0]global_index_init : 4516 mu s
[OGL LOG][Proc: 0]global_index_init : 1 mu s
[OGL LOG][Proc: 0]init_host_sparsity_pattern : 9984501246 mu s
[OGL LOG][Proc: 0]update_host_matrix_data : 1757854 mu s
[OGL LOG][Proc: 0]convert_coo_to_csr : 2565132 mu s
[OGL LOG][Proc: 0]gather_initGuess : 5 mu s
[OGL LOG][Proc: 0]gather_RHS : 0 mu s
[OGL LOG][Proc: 0]gather_global_matrix : 1 mu s
[OGL LOG][Proc: 0]init_precond : 87 mu s
[OGL LOG][Proc: 0]generate_solver : 9 mu s
[OGL LOG][Proc: 0]solve : 62253565 mu s
nonecudaGKOCG:  Solving for p, Initial residual = 1, Final residual = 9.99785e-05, No Iterations 4110
linear solve p 1492323512
time step continuity errors : sum local = 1.73248e-10, global = 1.46808e-22, cumulative = 1.46808e-22
[OGL LOG][Proc: 0]global_index_init : 6 mu s
[OGL LOG][Proc: 0]global_index_init : 3 mu s
[OGL LOG][Proc: 0]update_host_matrix_data : 1556066 mu s
[OGL LOG][Proc: 0]gather_initGuess : 1 mu s
[OGL LOG][Proc: 0]gather_RHS : 0 mu s
[OGL LOG][Proc: 0]gather_global_matrix : 0 mu s
[OGL LOG][Proc: 0]init_precond : 58 mu s
[OGL LOG][Proc: 0]generate_solver : 0 mu s
[OGL LOG][Proc: 0]solve : 57898538 mu s
nonecudaGKOCG:  Solving for p, Initial residual = 1, Final residual = 8.57918e-05, No Iterations 3937
linear solve p 87686940
time step continuity errors : sum local = 4.78928e-11, global = -6.67802e-25, cumulative = 1.4614e-22
ExecutionTime = 10464.5 s  ClockTime = 10482 s

Time = 4e-05

Courant Number mean: 0.00105578 max: 0.0776342
DILUPBiCGStab:  Solving for Ux, Initial residual = 0.150267, Final residual = 0.00131031, No Iterations 5
DILUPBiCGStab:  Solving for Uy, Initial residual = 0.356029, Final residual = 0.00122663, No Iterations 5
DILUPBiCGStab:  Solving for Uz, Initial residual = 0.997787, Final residual = 0.00570202, No Iterations 5
linear solve U 83413534
[OGL LOG][Proc: 0]global_index_init : 10 mu s
[OGL LOG][Proc: 0]global_index_init : 0 mu s
[OGL LOG][Proc: 0]update_host_matrix_data : 1543015 mu s
[OGL LOG][Proc: 0]gather_initGuess : 1 mu s
[OGL LOG][Proc: 0]gather_RHS : 0 mu s
[OGL LOG][Proc: 0]gather_global_matrix : 0 mu s
[OGL LOG][Proc: 0]init_precond : 48 mu s
[OGL LOG][Proc: 0]generate_solver : 0 mu s
[OGL LOG][Proc: 0]solve : 60062571 mu s
nonecudaGKOCG:  Solving for p, Initial residual = 1, Final residual = 4.80716e-05, No Iterations 4083
linear solve p 89836254
time step continuity errors : sum local = 9.99065e-11, global = -2.34901e-23, cumulative = 1.2265e-22
[OGL LOG][Proc: 0]global_index_init : 12 mu s
[OGL LOG][Proc: 0]global_index_init : 0 mu s
[OGL LOG][Proc: 0]update_host_matrix_data : 1568050 mu s
[OGL LOG][Proc: 0]gather_initGuess : 1 mu s
[OGL LOG][Proc: 0]gather_RHS : 0 mu s
[OGL LOG][Proc: 0]gather_global_matrix : 0 mu s
[OGL LOG][Proc: 0]init_precond : 50 mu s
[OGL LOG][Proc: 0]generate_solver : 0 mu s
[OGL LOG][Proc: 0]solve : 57561758 mu s
nonecudaGKOCG:  Solving for p, Initial residual = 1, Final residual = 5.56995e-05, No Iterations 3913
linear solve p 87365319
time step continuity errors : sum local = 3.33204e-11, global = -8.69597e-24, cumulative = 1.13954e-22
ExecutionTime = 10781.4 s  ClockTime = 10801 s

Time = 6e-05

Courant Number mean: 0.0016071 max: 0.0884744
DILUPBiCGStab:  Solving for Ux, Initial residual = 0.0623698, Final residual = 0.000343625, No Iterations 5
DILUPBiCGStab:  Solving for Uy, Initial residual = 0.140286, Final residual = 0.000242898, No Iterations 5
DILUPBiCGStab:  Solving for Uz, Initial residual = 0.660793, Final residual = 0.00412798, No Iterations 5
linear solve U 83405170
[OGL LOG][Proc: 0]global_index_init : 9 mu s
[OGL LOG][Proc: 0]global_index_init : 0 mu s
[OGL LOG][Proc: 0]update_host_matrix_data : 1543752 mu s
[OGL LOG][Proc: 0]gather_initGuess : 1 mu s
[OGL LOG][Proc: 0]gather_RHS : 0 mu s
[OGL LOG][Proc: 0]gather_global_matrix : 0 mu s
[OGL LOG][Proc: 0]init_precond : 46 mu s
[OGL LOG][Proc: 0]generate_solver : 1 mu s
[OGL LOG][Proc: 0]solve : 59661886 mu s
nonecudaGKOCG:  Solving for p, Initial residual = 1, Final residual = 2.48723e-05, No Iterations 4057
linear solve p 89452259
time step continuity errors : sum local = 3.35096e-11, global = -3.07316e-23, cumulative = 8.32225e-23
[OGL LOG][Proc: 0]global_index_init : 9 mu s
[OGL LOG][Proc: 0]global_index_init : 0 mu s
[OGL LOG][Proc: 0]update_host_matrix_data : 1566350 mu s
[OGL LOG][Proc: 0]gather_initGuess : 1 mu s
[OGL LOG][Proc: 0]gather_RHS : 1 mu s
[OGL LOG][Proc: 0]gather_global_matrix : 0 mu s
[OGL LOG][Proc: 0]init_precond : 48 mu s
[OGL LOG][Proc: 0]generate_solver : 1 mu s
[OGL LOG][Proc: 0]solve : 57196708 mu s
nonecudaGKOCG:  Solving for p, Initial residual = 1, Final residual = 5.77835e-05, No Iterations 3889
linear solve p 86991500
time step continuity errors : sum local = 3.21243e-11, global = -2.44914e-23, cumulative = 5.87311e-23
ExecutionTime = 11097.5 s  ClockTime = 11119 s

Time = 8e-05

Courant Number mean: 0.00199295 max: 0.0913808
DILUPBiCGStab:  Solving for Ux, Initial residual = 0.0414944, Final residual = 0.0001597, No Iterations 5
DILUPBiCGStab:  Solving for Uy, Initial residual = 0.088713, Final residual = 0.000138059, No Iterations 5
DILUPBiCGStab:  Solving for Uz, Initial residual = 0.16015, Final residual = 0.000682123, No Iterations 5
linear solve U 83479132
[OGL LOG][Proc: 0]global_index_init : 10 mu s
[OGL LOG][Proc: 0]global_index_init : 0 mu s
[OGL LOG][Proc: 0]update_host_matrix_data : 1543513 mu s
[OGL LOG][Proc: 0]gather_initGuess : 1 mu s
[OGL LOG][Proc: 0]gather_RHS : 0 mu s
[OGL LOG][Proc: 0]gather_global_matrix : 0 mu s
[OGL LOG][Proc: 0]init_precond : 46 mu s
[OGL LOG][Proc: 0]generate_solver : 0 mu s
[OGL LOG][Proc: 0]solve : 57023899 mu s
nonecudaGKOCG:  Solving for p, Initial residual = 1, Final residual = 8.40372e-05, No Iterations 3876
linear solve p 87034572
time step continuity errors : sum local = 8.84231e-11, global = -5.50331e-23, cumulative = 3.69796e-24
[OGL LOG][Proc: 0]global_index_init : 7 mu s
[OGL LOG][Proc: 0]global_index_init : 0 mu s
[OGL LOG][Proc: 0]update_host_matrix_data : 1561459 mu s
[OGL LOG][Proc: 0]gather_initGuess : 1 mu s
[OGL LOG][Proc: 0]gather_RHS : 0 mu s
[OGL LOG][Proc: 0]gather_global_matrix : 0 mu s
[OGL LOG][Proc: 0]init_precond : 49 mu s
[OGL LOG][Proc: 0]generate_solver : 1 mu s
[OGL LOG][Proc: 0]solve : 57025679 mu s
nonecudaGKOCG:  Solving for p, Initial residual = 1, Final residual = 4.19105e-05, No Iterations 3876
linear solve p 86842614
time step continuity errors : sum local = 2.3789e-11, global = 2.19855e-23, cumulative = 2.56834e-23
ExecutionTime = 11411.1 s  ClockTime = 11434 s

Time = 0.0001

Courant Number mean: 0.00230681 max: 0.092787
DILUPBiCGStab:  Solving for Ux, Initial residual = 0.0318129, Final residual = 8.18458e-05, No Iterations 5
DILUPBiCGStab:  Solving for Uy, Initial residual = 0.0636162, Final residual = 7.14872e-05, No Iterations 5
DILUPBiCGStab:  Solving for Uz, Initial residual = 0.0893626, Final residual = 0.000304013, No Iterations 5
linear solve U 83485668
[OGL LOG][Proc: 0]global_index_init : 10 mu s
[OGL LOG][Proc: 0]global_index_init : 0 mu s
[OGL LOG][Proc: 0]update_host_matrix_data : 1546760 mu s
[OGL LOG][Proc: 0]gather_initGuess : 1 mu s
[OGL LOG][Proc: 0]gather_RHS : 0 mu s
[OGL LOG][Proc: 0]gather_global_matrix : 0 mu s
[OGL LOG][Proc: 0]init_precond : 47 mu s
[OGL LOG][Proc: 0]generate_solver : 0 mu s
[OGL LOG][Proc: 0]solve : 57029408 mu s
nonecudaGKOCG:  Solving for p, Initial residual = 1, Final residual = 6.94522e-05, No Iterations 3876
linear solve p 86816197
time step continuity errors : sum local = 5.32947e-11, global = 8.58168e-25, cumulative = 2.65416e-23
[OGL LOG][Proc: 0]global_index_init : 11 mu s
[OGL LOG][Proc: 0]global_index_init : 0 mu s
[OGL LOG][Proc: 0]update_host_matrix_data : 1566084 mu s
[OGL LOG][Proc: 0]gather_initGuess : 1 mu s
[OGL LOG][Proc: 0]gather_RHS : 0 mu s
[OGL LOG][Proc: 0]gather_global_matrix : 0 mu s
[OGL LOG][Proc: 0]init_precond : 47 mu s
[OGL LOG][Proc: 0]generate_solver : 1 mu s
[OGL LOG][Proc: 0]solve : 57018148 mu s
nonecudaGKOCG:  Solving for p, Initial residual = 1, Final residual = 4.92207e-05, No Iterations 3876
linear solve p 86814746
time step continuity errors : sum local = 2.75494e-11, global = 5.43901e-23, cumulative = 8.09317e-23
ExecutionTime = 11724.5 s  ClockTime = 11749 s

Time = 0.00012

Courant Number mean: 0.00257542 max: 0.0936646
DILUPBiCGStab:  Solving for Ux, Initial residual = 0.0259261, Final residual = 6.12196e-05, No Iterations 5
DILUPBiCGStab:  Solving for Uy, Initial residual = 0.050042, Final residual = 3.79068e-05, No Iterations 5
DILUPBiCGStab:  Solving for Uz, Initial residual = 0.0786774, Final residual = 0.000272339, No Iterations 5
linear solve U 83499056
[OGL LOG][Proc: 0]global_index_init : 8 mu s
[OGL LOG][Proc: 0]global_index_init : 1 mu s
[OGL LOG][Proc: 0]update_host_matrix_data : 1545120 mu s
[OGL LOG][Proc: 0]gather_initGuess : 1 mu s
[OGL LOG][Proc: 0]gather_RHS : 0 mu s
[OGL LOG][Proc: 0]gather_global_matrix : 0 mu s
[OGL LOG][Proc: 0]init_precond : 59 mu s
[OGL LOG][Proc: 0]generate_solver : 1 mu s
[OGL LOG][Proc: 0]solve : 57047498 mu s
nonecudaGKOCG:  Solving for p, Initial residual = 1, Final residual = 8.56269e-05, No Iterations 3876
linear solve p 86844488
time step continuity errors : sum local = 6.11082e-11, global = -1.30654e-23, cumulative = 6.78663e-23
[OGL LOG][Proc: 0]global_index_init : 7 mu s
[OGL LOG][Proc: 0]global_index_init : 0 mu s
[OGL LOG][Proc: 0]update_host_matrix_data : 1561440 mu s
[OGL LOG][Proc: 0]gather_initGuess : 1 mu s
[OGL LOG][Proc: 0]gather_RHS : 0 mu s
[OGL LOG][Proc: 0]gather_global_matrix : 0 mu s
[OGL LOG][Proc: 0]init_precond : 40 mu s
[OGL LOG][Proc: 0]generate_solver : 1 mu s
[OGL LOG][Proc: 0]solve : 57028773 mu s
nonecudaGKOCG:  Solving for p, Initial residual = 1, Final residual = 4.52237e-05, No Iterations 3876
linear solve p 86849339
time step continuity errors : sum local = 2.52905e-11, global = 2.59315e-23, cumulative = 9.37978e-23
ExecutionTime = 12037.9 s  ClockTime = 12064 s

Time = 0.00014

Courant Number mean: 0.00281293 max: 0.0942765
DILUPBiCGStab:  Solving for Ux, Initial residual = 0.0220094, Final residual = 4.13765e-05, No Iterations 5
DILUPBiCGStab:  Solving for Uy, Initial residual = 0.0411028, Final residual = 2.9199e-05, No Iterations 5
DILUPBiCGStab:  Solving for Uz, Initial residual = 0.0655878, Final residual = 0.000152841, No Iterations 5
linear solve U 83403439
[OGL LOG][Proc: 0]global_index_init : 14 mu s
[OGL LOG][Proc: 0]global_index_init : 1 mu s
[OGL LOG][Proc: 0]update_host_matrix_data : 1549126 mu s
[OGL LOG][Proc: 0]gather_initGuess : 1 mu s
[OGL LOG][Proc: 0]gather_RHS : 0 mu s
[OGL LOG][Proc: 0]gather_global_matrix : 0 mu s
[OGL LOG][Proc: 0]init_precond : 46 mu s
[OGL LOG][Proc: 0]generate_solver : 0 mu s
[OGL LOG][Proc: 0]solve : 57022144 mu s
nonecudaGKOCG:  Solving for p, Initial residual = 1, Final residual = 7.90394e-05, No Iterations 3876
linear solve p 86825255
time step continuity errors : sum local = 5.14855e-11, global = 2.30942e-23, cumulative = 1.16892e-22
[OGL LOG][Proc: 0]global_index_init : 8 mu s
[OGL LOG][Proc: 0]global_index_init : 0 mu s
[OGL LOG][Proc: 0]update_host_matrix_data : 1564645 mu s
[OGL LOG][Proc: 0]gather_initGuess : 1 mu s
[OGL LOG][Proc: 0]gather_RHS : 0 mu s
[OGL LOG][Proc: 0]gather_global_matrix : 0 mu s
[OGL LOG][Proc: 0]init_precond : 56 mu s
[OGL LOG][Proc: 0]generate_solver : 1 mu s
[OGL LOG][Proc: 0]solve : 57035535 mu s
nonecudaGKOCG:  Solving for p, Initial residual = 1, Final residual = 4.80994e-05, No Iterations 3876
linear solve p 86846162
time step continuity errors : sum local = 2.68973e-11, global = -8.07338e-24, cumulative = 1.08819e-22
ExecutionTime = 12351.5 s  ClockTime = 12380 s

Time = 0.00016

Courant Number mean: 0.00302714 max: 0.094736
DILUPBiCGStab:  Solving for Ux, Initial residual = 0.0191749, Final residual = 3.07311e-05, No Iterations 5
DILUPBiCGStab:  Solving for Uy, Initial residual = 0.0349128, Final residual = 1.42088e-05, No Iterations 5
DILUPBiCGStab:  Solving for Uz, Initial residual = 0.0583192, Final residual = 0.000104225, No Iterations 5
linear solve U 83435011
[OGL LOG][Proc: 0]global_index_init : 13 mu s
[OGL LOG][Proc: 0]global_index_init : 0 mu s
[OGL LOG][Proc: 0]update_host_matrix_data : 1543188 mu s
[OGL LOG][Proc: 0]gather_initGuess : 1 mu s
[OGL LOG][Proc: 0]gather_RHS : 0 mu s
[OGL LOG][Proc: 0]gather_global_matrix : 0 mu s
[OGL LOG][Proc: 0]init_precond : 48 mu s
[OGL LOG][Proc: 0]generate_solver : 0 mu s
[OGL LOG][Proc: 0]solve : 57021320 mu s
nonecudaGKOCG:  Solving for p, Initial residual = 1, Final residual = 6.14709e-05, No Iterations 3876
linear solve p 86808834
time step continuity errors : sum local = 3.82417e-11, global = 2.3569e-23, cumulative = 1.32388e-22
[OGL LOG][Proc: 0]global_index_init : 9 mu s
[OGL LOG][Proc: 0]global_index_init : 0 mu s
[OGL LOG][Proc: 0]update_host_matrix_data : 1565828 mu s
[OGL LOG][Proc: 0]gather_initGuess : 1 mu s
[OGL LOG][Proc: 0]gather_RHS : 0 mu s
[OGL LOG][Proc: 0]gather_global_matrix : 0 mu s
[OGL LOG][Proc: 0]init_precond : 46 mu s
[OGL LOG][Proc: 0]generate_solver : 0 mu s
[OGL LOG][Proc: 0]solve : 57028261 mu s
nonecudaGKOCG:  Solving for p, Initial residual = 1, Final residual = 4.85778e-05, No Iterations 3876
linear solve p 86833346
time step continuity errors : sum local = 2.71332e-11, global = -2.32966e-23, cumulative = 1.09091e-22
ExecutionTime = 12664.9 s  ClockTime = 12695 s

Time = 0.00018

Courant Number mean: 0.00322321 max: 0.0950968
DILUPBiCGStab:  Solving for Ux, Initial residual = 0.0170098, Final residual = 2.22632e-05, No Iterations 5
DILUPBiCGStab:  Solving for Uy, Initial residual = 0.0303376, Final residual = 1.25921e-05, No Iterations 5
DILUPBiCGStab:  Solving for Uz, Initial residual = 0.0517991, Final residual = 7.64086e-05, No Iterations 5
linear solve U 83519299
[OGL LOG][Proc: 0]global_index_init : 10 mu s
[OGL LOG][Proc: 0]global_index_init : 0 mu s
[OGL LOG][Proc: 0]update_host_matrix_data : 1545498 mu s
[OGL LOG][Proc: 0]gather_initGuess : 1 mu s
[OGL LOG][Proc: 0]gather_RHS : 0 mu s
[OGL LOG][Proc: 0]gather_global_matrix : 0 mu s
[OGL LOG][Proc: 0]init_precond : 46 mu s
[OGL LOG][Proc: 0]generate_solver : 1 mu s
[OGL LOG][Proc: 0]solve : 57024635 mu s
nonecudaGKOCG:  Solving for p, Initial residual = 1, Final residual = 3.53264e-05, No Iterations 3876
linear solve p 86822800
time step continuity errors : sum local = 2.12988e-11, global = 3.56471e-24, cumulative = 1.12656e-22
[OGL LOG][Proc: 0]global_index_init : 6 mu s
[OGL LOG][Proc: 0]global_index_init : 1 mu s
[OGL LOG][Proc: 0]update_host_matrix_data : 1565762 mu s
[OGL LOG][Proc: 0]gather_initGuess : 1 mu s
[OGL LOG][Proc: 0]gather_RHS : 0 mu s
[OGL LOG][Proc: 0]gather_global_matrix : 0 mu s
[OGL LOG][Proc: 0]init_precond : 46 mu s
[OGL LOG][Proc: 0]generate_solver : 0 mu s
[OGL LOG][Proc: 0]solve : 57034315 mu s
nonecudaGKOCG:  Solving for p, Initial residual = 1, Final residual = 5.04511e-05, No Iterations 3876
linear solve p 86846217
time step continuity errors : sum local = 2.8196e-11, global = 1.28627e-23, cumulative = 1.25519e-22
ExecutionTime = 12978.4 s  ClockTime = 13010 s

Time = 0.0002

Courant Number mean: 0.00340458 max: 0.0953899
DILUPBiCGStab:  Solving for Ux, Initial residual = 0.0153111, Final residual = 1.73479e-05, No Iterations 5
DILUPBiCGStab:  Solving for Uy, Initial residual = 0.0268127, Final residual = 6.91939e-06, No Iterations 5
DILUPBiCGStab:  Solving for Uz, Initial residual = 0.0469018, Final residual = 5.5627e-05, No Iterations 5
linear solve U 83471341
[OGL LOG][Proc: 0]global_index_init : 11 mu s
[OGL LOG][Proc: 0]global_index_init : 0 mu s
[OGL LOG][Proc: 0]update_host_matrix_data : 1546261 mu s
[OGL LOG][Proc: 0]gather_initGuess : 1 mu s
[OGL LOG][Proc: 0]gather_RHS : 0 mu s
[OGL LOG][Proc: 0]gather_global_matrix : 0 mu s
[OGL LOG][Proc: 0]init_precond : 56 mu s
[OGL LOG][Proc: 0]generate_solver : 1 mu s
[OGL LOG][Proc: 0]solve : 54764431 mu s
nonecudaGKOCG:  Solving for p, Initial residual = 1, Final residual = 6.57632e-05, No Iterations 3721
linear solve p 84566918
time step continuity errors : sum local = 3.86925e-11, global = -1.27444e-23, cumulative = 1.12774e-22
[OGL LOG][Proc: 0]global_index_init : 6 mu s
[OGL LOG][Proc: 0]global_index_init : 1 mu s
[OGL LOG][Proc: 0]update_host_matrix_data : 1566459 mu s
[OGL LOG][Proc: 0]gather_initGuess : 1 mu s
[OGL LOG][Proc: 0]gather_RHS : 1 mu s
[OGL LOG][Proc: 0]gather_global_matrix : 0 mu s
[OGL LOG][Proc: 0]init_precond : 47 mu s
[OGL LOG][Proc: 0]generate_solver : 1 mu s
[OGL LOG][Proc: 0]solve : 56625390 mu s
nonecudaGKOCG:  Solving for p, Initial residual = 1, Final residual = 6.09622e-05, No Iterations 3849
linear solve p 86436192
time step continuity errors : sum local = 3.4082e-11, global = -4.70727e-23, cumulative = 6.57015e-23
ExecutionTime = 13289.1 s  ClockTime = 13322 s

Time = 0.00022

Courant Number mean: 0.00357377 max: 0.0956344
DILUPBiCGStab:  Solving for Ux, Initial residual = 0.0139267, Final residual = 1.34666e-05, No Iterations 5
DILUPBiCGStab:  Solving for Uy, Initial residual = 0.024021, Final residual = 6.2367e-06, No Iterations 5
DILUPBiCGStab:  Solving for Uz, Initial residual = 0.0427286, Final residual = 4.31747e-05, No Iterations 5
linear solve U 83477681
[OGL LOG][Proc: 0]global_index_init : 10 mu s
[OGL LOG][Proc: 0]global_index_init : 0 mu s
[OGL LOG][Proc: 0]update_host_matrix_data : 1551095 mu s
[OGL LOG][Proc: 0]gather_initGuess : 2 mu s
[OGL LOG][Proc: 0]gather_RHS : 0 mu s
[OGL LOG][Proc: 0]gather_global_matrix : 0 mu s
[OGL LOG][Proc: 0]init_precond : 57 mu s
[OGL LOG][Proc: 0]generate_solver : 1 mu s
[OGL LOG][Proc: 0]solve : 56312662 mu s
nonecudaGKOCG:  Solving for p, Initial residual = 1, Final residual = 2.65878e-05, No Iterations 3826
linear solve p 86116402
time step continuity errors : sum local = 1.54451e-11, global = 9.53276e-23, cumulative = 1.61029e-22
[OGL LOG][Proc: 0]global_index_init : 12 mu s
[OGL LOG][Proc: 0]global_index_init : 0 mu s
[OGL LOG][Proc: 0]update_host_matrix_data : 1566768 mu s
[OGL LOG][Proc: 0]gather_initGuess : 1 mu s
[OGL LOG][Proc: 0]gather_RHS : 0 mu s
[OGL LOG][Proc: 0]gather_global_matrix : 0 mu s
[OGL LOG][Proc: 0]init_precond : 49 mu s
[OGL LOG][Proc: 0]generate_solver : 1 mu s
[OGL LOG][Proc: 0]solve : 56287888 mu s
nonecudaGKOCG:  Solving for p, Initial residual = 1, Final residual = 7.21569e-05, No Iterations 3826
linear solve p 86347760
time step continuity errors : sum local = 4.03497e-11, global = -1.82631e-23, cumulative = 1.42766e-22
ExecutionTime = 13601.4 s  ClockTime = 13636 s

Time = 0.00024

Courant Number mean: 0.00373265 max: 0.0958419
DILUPBiCGStab:  Solving for Ux, Initial residual = 0.012784, Final residual = 1.10122e-05, No Iterations 5
DILUPBiCGStab:  Solving for Uy, Initial residual = 0.0217476, Final residual = 4.0455e-06, No Iterations 5
DILUPBiCGStab:  Solving for Uz, Initial residual = 0.0392463, Final residual = 3.44782e-05, No Iterations 5
linear solve U 83458641
[OGL LOG][Proc: 0]global_index_init : 6 mu s
[OGL LOG][Proc: 0]global_index_init : 1 mu s
[OGL LOG][Proc: 0]update_host_matrix_data : 1545677 mu s
[OGL LOG][Proc: 0]gather_initGuess : 1 mu s
[OGL LOG][Proc: 0]gather_RHS : 0 mu s
[OGL LOG][Proc: 0]gather_global_matrix : 0 mu s
[OGL LOG][Proc: 0]init_precond : 61 mu s
[OGL LOG][Proc: 0]generate_solver : 1 mu s
[OGL LOG][Proc: 0]solve : 54056959 mu s
nonecudaGKOCG:  Solving for p, Initial residual = 1, Final residual = 9.60041e-05, No Iterations 3673
linear solve p 83853032
time step continuity errors : sum local = 5.5226e-11, global = -8.67926e-24, cumulative = 1.34087e-22
[OGL LOG][Proc: 0]global_index_init : 7 mu s
[OGL LOG][Proc: 0]global_index_init : 1 mu s
[OGL LOG][Proc: 0]update_host_matrix_data : 1565715 mu s
[OGL LOG][Proc: 0]gather_initGuess : 1 mu s
[OGL LOG][Proc: 0]gather_RHS : 0 mu s
[OGL LOG][Proc: 0]gather_global_matrix : 0 mu s
[OGL LOG][Proc: 0]init_precond : 47 mu s
[OGL LOG][Proc: 0]generate_solver : 1 mu s
[OGL LOG][Proc: 0]solve : 55870581 mu s
nonecudaGKOCG:  Solving for p, Initial residual = 1, Final residual = 8.928e-05, No Iterations 3797
linear solve p 85684277
time step continuity errors : sum local = 4.99758e-11, global = -4.90765e-23, cumulative = 8.50102e-23
ExecutionTime = 13910.7 s  ClockTime = 13947 s

Time = 0.00026

Courant Number mean: 0.00388271 max: 0.0960213
DILUPBiCGStab:  Solving for Ux, Initial residual = 0.0118169, Final residual = 9.02329e-06, No Iterations 5
DILUPBiCGStab:  Solving for Uy, Initial residual = 0.019866, Final residual = 3.60862e-06, No Iterations 5
DILUPBiCGStab:  Solving for Uz, Initial residual = 0.036308, Final residual = 2.8062e-05, No Iterations 5
linear solve U 83449408
[OGL LOG][Proc: 0]global_index_init : 10 mu s
[OGL LOG][Proc: 0]global_index_init : 0 mu s
[OGL LOG][Proc: 0]update_host_matrix_data : 1543644 mu s
[OGL LOG][Proc: 0]gather_initGuess : 1 mu s
[OGL LOG][Proc: 0]gather_RHS : 0 mu s
[OGL LOG][Proc: 0]gather_global_matrix : 0 mu s
[OGL LOG][Proc: 0]init_precond : 47 mu s
[OGL LOG][Proc: 0]generate_solver : 1 mu s
[OGL LOG][Proc: 0]solve : 55554009 mu s
nonecudaGKOCG:  Solving for p, Initial residual = 1, Final residual = 7.46525e-05, No Iterations 3776
linear solve p 85341627
time step continuity errors : sum local = 4.2659e-11, global = -7.94174e-23, cumulative = 5.59283e-24
[OGL LOG][Proc: 0]global_index_init : 12 mu s
[OGL LOG][Proc: 0]global_index_init : 0 mu s
[OGL LOG][Proc: 0]update_host_matrix_data : 1568160 mu s
[OGL LOG][Proc: 0]gather_initGuess : 1 mu s
[OGL LOG][Proc: 0]gather_RHS : 0 mu s
[OGL LOG][Proc: 0]gather_global_matrix : 0 mu s
[OGL LOG][Proc: 0]init_precond : 46 mu s
[OGL LOG][Proc: 0]generate_solver : 1 mu s
[OGL LOG][Proc: 0]solve : 57771994 mu s
nonecudaGKOCG:  Solving for p, Initial residual = 1, Final residual = 3.71152e-05, No Iterations 3927
linear solve p 87572869
time step continuity errors : sum local = 2.07845e-11, global = 9.00825e-23, cumulative = 9.56753e-23
ExecutionTime = 14223.4 s  ClockTime = 14262 s

Time = 0.00028

Courant Number mean: 0.00402502 max: 0.0961782
DILUPBiCGStab:  Solving for Ux, Initial residual = 0.0109916, Final residual = 7.60058e-06, No Iterations 5
DILUPBiCGStab:  Solving for Uy, Initial residual = 0.0182787, Final residual = 2.69133e-06, No Iterations 5
DILUPBiCGStab:  Solving for Uz, Initial residual = 0.0337903, Final residual = 2.3424e-05, No Iterations 5
linear solve U 83520066
[OGL LOG][Proc: 0]global_index_init : 10 mu s
[OGL LOG][Proc: 0]global_index_init : 0 mu s
[OGL LOG][Proc: 0]update_host_matrix_data : 1546522 mu s
[OGL LOG][Proc: 0]gather_initGuess : 1 mu s
[OGL LOG][Proc: 0]gather_RHS : 0 mu s
[OGL LOG][Proc: 0]gather_global_matrix : 0 mu s
[OGL LOG][Proc: 0]init_precond : 57 mu s
[OGL LOG][Proc: 0]generate_solver : 1 mu s
[OGL LOG][Proc: 0]solve : 48533628 mu s
nonecudaGKOCG:  Solving for p, Initial residual = 1, Final residual = 8.45168e-05, No Iterations 3298
linear solve p 78338231
time step continuity errors : sum local = 4.82355e-11, global = 4.99163e-24, cumulative = 1.00667e-22
[OGL LOG][Proc: 0]global_index_init : 11 mu s
[OGL LOG][Proc: 0]global_index_init : 0 mu s
[OGL LOG][Proc: 0]update_host_matrix_data : 1562549 mu s
[OGL LOG][Proc: 0]gather_initGuess : 1 mu s
[OGL LOG][Proc: 0]gather_RHS : 0 mu s
[OGL LOG][Proc: 0]gather_global_matrix : 0 mu s
[OGL LOG][Proc: 0]init_precond : 48 mu s
[OGL LOG][Proc: 0]generate_solver : 1 mu s
[OGL LOG][Proc: 0]solve : 40502167 mu s
nonecudaGKOCG:  Solving for p, Initial residual = 1, Final residual = 7.61113e-05, No Iterations 2752
linear solve p 70295352
time step continuity errors : sum local = 4.33711e-11, global = 6.62078e-23, cumulative = 1.66875e-22
ExecutionTime = 14512.1 s  ClockTime = 14552 s

Time = 0.0003

Courant Number mean: 0.00416047 max: 0.0963169
DILUPBiCGStab:  Solving for Ux, Initial residual = 0.0102749, Final residual = 6.44759e-06, No Iterations 5
DILUPBiCGStab:  Solving for Uy, Initial residual = 0.0169263, Final residual = 2.37705e-06, No Iterations 5
DILUPBiCGStab:  Solving for Uz, Initial residual = 0.0314891, Final residual = 2.06955e-05, No Iterations 5
linear solve U 83376814
[OGL LOG][Proc: 0]global_index_init : 10 mu s
[OGL LOG][Proc: 0]global_index_init : 0 mu s
[OGL LOG][Proc: 0]update_host_matrix_data : 1547239 mu s
[OGL LOG][Proc: 0]gather_initGuess : 1 mu s
[OGL LOG][Proc: 0]gather_RHS : 0 mu s
[OGL LOG][Proc: 0]gather_global_matrix : 0 mu s
[OGL LOG][Proc: 0]init_precond : 48 mu s
[OGL LOG][Proc: 0]generate_solver : 0 mu s
[OGL LOG][Proc: 0]solve : 56663089 mu s
nonecudaGKOCG:  Solving for p, Initial residual = 1, Final residual = 5.18576e-05, No Iterations 3851
linear solve p 86464940
time step continuity errors : sum local = 2.94259e-11, global = -7.42446e-23, cumulative = 9.26302e-23
[OGL LOG][Proc: 0]global_index_init : 11 mu s
[OGL LOG][Proc: 0]global_index_init : 0 mu s
[OGL LOG][Proc: 0]update_host_matrix_data : 1561906 mu s
[OGL LOG][Proc: 0]gather_initGuess : 1 mu s
[OGL LOG][Proc: 0]gather_RHS : 0 mu s
[OGL LOG][Proc: 0]gather_global_matrix : 0 mu s
[OGL LOG][Proc: 0]init_precond : 45 mu s
[OGL LOG][Proc: 0]generate_solver : 1 mu s
[OGL LOG][Proc: 0]solve : 56650982 mu s
nonecudaGKOCG:  Solving for p, Initial residual = 1, Final residual = 7.24268e-05, No Iterations 3851
linear solve p 86462170
time step continuity errors : sum local = 4.06154e-11, global = -1.88135e-23, cumulative = 7.38167e-23
ExecutionTime = 14824.8 s  ClockTime = 14866 s

Time = 0.00032

Courant Number mean: 0.00428992 max: 0.0964408
DILUPBiCGStab:  Solving for Ux, Initial residual = 0.0096495, Final residual = 5.5553e-06, No Iterations 5
DILUPBiCGStab:  Solving for Uy, Initial residual = 0.015754, Final residual = 1.93757e-06, No Iterations 5
DILUPBiCGStab:  Solving for Uz, Initial residual = 0.0295883, Final residual = 1.73394e-05, No Iterations 5
linear solve U 83386836
[OGL LOG][Proc: 0]global_index_init : 10 mu s
[OGL LOG][Proc: 0]global_index_init : 1 mu s
[OGL LOG][Proc: 0]update_host_matrix_data : 1546244 mu s
[OGL LOG][Proc: 0]gather_initGuess : 1 mu s
[OGL LOG][Proc: 0]gather_RHS : 0 mu s
[OGL LOG][Proc: 0]gather_global_matrix : 0 mu s
[OGL LOG][Proc: 0]init_precond : 47 mu s
[OGL LOG][Proc: 0]generate_solver : 0 mu s
[OGL LOG][Proc: 0]solve : 56656298 mu s
nonecudaGKOCG:  Solving for p, Initial residual = 1, Final residual = 5.87744e-05, No Iterations 3851
linear solve p 86443334
time step continuity errors : sum local = 3.33485e-11, global = -3.67988e-23, cumulative = 3.70179e-23
[OGL LOG][Proc: 0]global_index_init : 9 mu s
[OGL LOG][Proc: 0]global_index_init : 0 mu s
[OGL LOG][Proc: 0]update_host_matrix_data : 1566219 mu s
[OGL LOG][Proc: 0]gather_initGuess : 1 mu s
[OGL LOG][Proc: 0]gather_RHS : 0 mu s
[OGL LOG][Proc: 0]gather_global_matrix : 0 mu s
[OGL LOG][Proc: 0]init_precond : 45 mu s
[OGL LOG][Proc: 0]generate_solver : 0 mu s
[OGL LOG][Proc: 0]solve : 56653388 mu s
nonecudaGKOCG:  Solving for p, Initial residual = 1, Final residual = 7.37451e-05, No Iterations 3851
linear solve p 86483710
time step continuity errors : sum local = 4.13831e-11, global = -8.64559e-24, cumulative = 2.83723e-23
ExecutionTime = 15137.5 s  ClockTime = 15181 s

Time = 0.00034

Courant Number mean: 0.00441392 max: 0.0965522
DILUPBiCGStab:  Solving for Ux, Initial residual = 0.00909609, Final residual = 4.82985e-06, No Iterations 5
DILUPBiCGStab:  Solving for Uy, Initial residual = 0.014733, Final residual = 1.70797e-06, No Iterations 5
DILUPBiCGStab:  Solving for Uz, Initial residual = 0.0277838, Final residual = 1.46156e-05, No Iterations 5
linear solve U 83412202
[OGL LOG][Proc: 0]global_index_init : 7 mu s
[OGL LOG][Proc: 0]global_index_init : 0 mu s
[OGL LOG][Proc: 0]update_host_matrix_data : 1544571 mu s
[OGL LOG][Proc: 0]gather_initGuess : 1 mu s
[OGL LOG][Proc: 0]gather_RHS : 0 mu s
[OGL LOG][Proc: 0]gather_global_matrix : 0 mu s
[OGL LOG][Proc: 0]init_precond : 47 mu s
[OGL LOG][Proc: 0]generate_solver : 0 mu s
[OGL LOG][Proc: 0]solve : 45356929 mu s
nonecudaGKOCG:  Solving for p, Initial residual = 1, Final residual = 9.63036e-05, No Iterations 3081
linear solve p 75151408
time step continuity errors : sum local = 5.47836e-11, global = -1.38029e-23, cumulative = 1.45694e-23
[OGL LOG][Proc: 0]global_index_init : 6 mu s
[OGL LOG][Proc: 0]global_index_init : 0 mu s
[OGL LOG][Proc: 0]update_host_matrix_data : 1567196 mu s
[OGL LOG][Proc: 0]gather_initGuess : 1 mu s
[OGL LOG][Proc: 0]gather_RHS : 0 mu s
[OGL LOG][Proc: 0]gather_global_matrix : 0 mu s
[OGL LOG][Proc: 0]init_precond : 48 mu s
[OGL LOG][Proc: 0]generate_solver : 0 mu s
[OGL LOG][Proc: 0]solve : 38035506 mu s
nonecudaGKOCG:  Solving for p, Initial residual = 1, Final residual = 5.68968e-05, No Iterations 2584
linear solve p 67847659
time step continuity errors : sum local = 3.26892e-11, global = -2.78397e-23, cumulative = -1.32703e-23
ExecutionTime = 15420.5 s  ClockTime = 15465 s

Time = 0.00036

Courant Number mean: 0.00453298 max: 0.0966532
DILUPBiCGStab:  Solving for Ux, Initial residual = 0.00860387, Final residual = 4.24754e-06, No Iterations 5
DILUPBiCGStab:  Solving for Uy, Initial residual = 0.0138347, Final residual = 1.46264e-06, No Iterations 5
DILUPBiCGStab:  Solving for Uz, Initial residual = 0.0262584, Final residual = 1.31179e-05, No Iterations 5
linear solve U 83453041
[OGL LOG][Proc: 0]global_index_init : 10 mu s
[OGL LOG][Proc: 0]global_index_init : 0 mu s
[OGL LOG][Proc: 0]update_host_matrix_data : 1544693 mu s
[OGL LOG][Proc: 0]gather_initGuess : 1 mu s
[OGL LOG][Proc: 0]gather_RHS : 1 mu s
[OGL LOG][Proc: 0]gather_global_matrix : 0 mu s
[OGL LOG][Proc: 0]init_precond : 57 mu s
[OGL LOG][Proc: 0]generate_solver : 1 mu s
[OGL LOG][Proc: 0]solve : 31866950 mu s
nonecudaGKOCG:  Solving for p, Initial residual = 1, Final residual = 4.77733e-05, No Iterations 2164
linear solve p 61644645
time step continuity errors : sum local = 2.81771e-11, global = 5.99029e-23, cumulative = 4.66327e-23
[OGL LOG][Proc: 0]global_index_init : 6 mu s
[OGL LOG][Proc: 0]global_index_init : 0 mu s
[OGL LOG][Proc: 0]update_host_matrix_data : 1565708 mu s
[OGL LOG][Proc: 0]gather_initGuess : 1 mu s
[OGL LOG][Proc: 0]gather_RHS : 0 mu s
[OGL LOG][Proc: 0]gather_global_matrix : 0 mu s
[OGL LOG][Proc: 0]init_precond : 43 mu s
[OGL LOG][Proc: 0]generate_solver : 0 mu s
[OGL LOG][Proc: 0]solve : 26609316 mu s
nonecudaGKOCG:  Solving for p, Initial residual = 1, Final residual = 3.97921e-05, No Iterations 1807
linear solve p 56431682
time step continuity errors : sum local = 2.33561e-11, global = 5.64909e-23, cumulative = 1.03124e-22
ExecutionTime = 15678.9 s  ClockTime = 15725 s

Time = 0.00038

Courant Number mean: 0.00464763 max: 0.0967452
DILUPBiCGStab:  Solving for Ux, Initial residual = 0.00816302, Final residual = 3.76793e-06, No Iterations 5
DILUPBiCGStab:  Solving for Uy, Initial residual = 0.0130366, Final residual = 1.29714e-06, No Iterations 5
DILUPBiCGStab:  Solving for Uz, Initial residual = 0.0248861, Final residual = 1.13599e-05, No Iterations 5
linear solve U 83398643
[OGL LOG][Proc: 0]global_index_init : 6 mu s
[OGL LOG][Proc: 0]global_index_init : 0 mu s
[OGL LOG][Proc: 0]update_host_matrix_data : 1548704 mu s
[OGL LOG][Proc: 0]gather_initGuess : 1 mu s
[OGL LOG][Proc: 0]gather_RHS : 0 mu s
[OGL LOG][Proc: 0]gather_global_matrix : 0 mu s
[OGL LOG][Proc: 0]init_precond : 49 mu s
[OGL LOG][Proc: 0]generate_solver : 1 mu s
[OGL LOG][Proc: 0]solve : 25445266 mu s
nonecudaGKOCG:  Solving for p, Initial residual = 1, Final residual = 9.60001e-05, No Iterations 1729
linear solve p 55248653
time step continuity errors : sum local = 5.43254e-11, global = 2.28159e-23, cumulative = 1.2594e-22
[OGL LOG][Proc: 0]global_index_init : 7 mu s
[OGL LOG][Proc: 0]global_index_init : 0 mu s
[OGL LOG][Proc: 0]update_host_matrix_data : 1565506 mu s
[OGL LOG][Proc: 0]gather_initGuess : 1 mu s
[OGL LOG][Proc: 0]gather_RHS : 0 mu s
[OGL LOG][Proc: 0]gather_global_matrix : 0 mu s
[OGL LOG][Proc: 0]init_precond : 48 mu s
[OGL LOG][Proc: 0]generate_solver : 1 mu s
[OGL LOG][Proc: 0]solve : 25416676 mu s
nonecudaGKOCG:  Solving for p, Initial residual = 1, Final residual = 6.85033e-05, No Iterations 1726
linear solve p 55357223
time step continuity errors : sum local = 3.91531e-11, global = -7.23139e-23, cumulative = 5.36256e-23
ExecutionTime = 15930 s  ClockTime = 15977 s

Time = 0.0004

Courant Number mean: 0.00475815 max: 0.0968295
DILUPBiCGStab:  Solving for Ux, Initial residual = 0.00776521, Final residual = 3.37466e-06, No Iterations 5
DILUPBiCGStab:  Solving for Uy, Initial residual = 0.0123254, Final residual = 1.14237e-06, No Iterations 5
DILUPBiCGStab:  Solving for Uz, Initial residual = 0.0235823, Final residual = 1.08606e-05, No Iterations 5
linear solve U 83359072
[OGL LOG][Proc: 0]global_index_init : 8 mu s
[OGL LOG][Proc: 0]global_index_init : 0 mu s
[OGL LOG][Proc: 0]update_host_matrix_data : 1545396 mu s
[OGL LOG][Proc: 0]gather_initGuess : 1 mu s
[OGL LOG][Proc: 0]gather_RHS : 0 mu s
[OGL LOG][Proc: 0]gather_global_matrix : 0 mu s
[OGL LOG][Proc: 0]init_precond : 48 mu s
[OGL LOG][Proc: 0]generate_solver : 0 mu s
[OGL LOG][Proc: 0]solve : 25415281 mu s
nonecudaGKOCG:  Solving for p, Initial residual = 1, Final residual = 9.021e-05, No Iterations 1726
linear solve p 55204415
time step continuity errors : sum local = 5.25538e-11, global = -6.33327e-23, cumulative = -9.7071e-24
[OGL LOG][Proc: 0]global_index_init : 8 mu s
[OGL LOG][Proc: 0]global_index_init : 0 mu s
[OGL LOG][Proc: 0]update_host_matrix_data : 1569492 mu s
[OGL LOG][Proc: 0]gather_initGuess : 1 mu s
[OGL LOG][Proc: 0]gather_RHS : 1 mu s
[OGL LOG][Proc: 0]gather_global_matrix : 0 mu s
[OGL LOG][Proc: 0]init_precond : 48 mu s
[OGL LOG][Proc: 0]generate_solver : 0 mu s
[OGL LOG][Proc: 0]solve : 25418235 mu s
nonecudaGKOCG:  Solving for p, Initial residual = 1, Final residual = 6.90925e-05, No Iterations 1726
linear solve p 55232924
time step continuity errors : sum local = 3.99344e-11, global = 3.18987e-23, cumulative = 2.21916e-23
ExecutionTime = 16180.8 s  ClockTime = 16228 s

End

Finalising parallel run
================================================================================

============================= JOB FEEDBACK =============================

Job ID: 1744709
Cluster: hk
User/Group: eq4036/hk-project-test-fine
State: COMPLETED (exit code 0)
Partition: accelerated
Nodes: 1
Cores per node: 152
Nodelist: hkn0815
CPU Utilized: 09:12:43
CPU Efficiency: 2.61% of 14-17:36:40 core-walltime
Job Wall-clock time: 02:19:35
Starttime: Thu May 19 06:14:26 2022
Endtime: Thu May 19 08:34:01 2022
Memory Utilized: 185.84 GB
Memory Efficiency: 37.94% of 489.84 GB
Energy Consumed: 7000412 Joule / 1944.55888888889 Watthours
Average node power draw: 835.870089552239 Watt
hash: 83ada4061cb98ec827316635fe04d8d5
/*---------------------------------------------------------------------------*\
| =========                 |                                                 |
| \\      /  F ield         | OpenFOAM: The Open Source CFD Toolbox           |
|  \\    /   O peration     | Version:  2112                                  |
|   \\  /    A nd           | Website:  www.openfoam.com                      |
|    \\/     M anipulation  |                                                 |
\*---------------------------------------------------------------------------*/
Build  : d44c8318f0-20220111 OPENFOAM=2112 version=v2112
Arch   : "LSB;label=32;scalar=64"
Exec   : icoFoam -parallel
Date   : May 19 2022
Time   : 06:14:50
Host   : hkn0815.localdomain
PID    : 1033327
I/O    : uncollated
Case   : /hkfs/work/workspace/scratch/eq4036-lidDrivenCavity/simple/Variation_mesh/500/Variation_matrix_solver/CG_NoPrecond_CUDA/Variation_mpiRank_gko/4/base
nProcs : 4
Hosts  :
(
    (hkn0815.localdomain 4)
)
Pstream initialized with:
    floatTransfer      : 0
    nProcsSimpleSum    : 0
    commsType          : nonBlocking
    polling iterations : 0
trapFpe: Floating point exception trapping enabled (FOAM_SIGFPE).
fileModificationChecking : Monitoring run-time modified files using timeStampMaster (fileModificationSkew 5, maxFileModificationPolls 20)
allowSystemOperations : Allowing user-supplied system call operations

// * * * * * * * * * * * * * * * * * * * * * * * * * * * * * * * * * * * * * //
Create time

Create mesh for time = 0


PISO: Operating solver in PISO mode

Reading transportProperties

Reading field p

Reading field U

Reading/calculating face flux field phi


Starting time loop

Time = 2e-05

Courant Number mean: 0 max: 0
DILUPBiCGStab:  Solving for Ux, Initial residual = 1, Final residual = 0.00221092, No Iterations 5
DILUPBiCGStab:  Solving for Uy:  solution singularity
DILUPBiCGStab:  Solving for Uz:  solution singularity
linear solve U 21860482
[OGL LOG][Proc: 0]global_index_init : 6559 mu s
[OGL LOG][Proc: 0]global_index_init : 2 mu s
[OGL LOG][Proc: 0]init_host_sparsity_pattern : 5001544690 mu s
[OGL LOG][Proc: 0]update_host_matrix_data : 801158 mu s
[OGL LOG][Proc: 0]convert_coo_to_csr : 3282162 mu s
[OGL LOG][Proc: 0]gather_initGuess : 4 mu s
[OGL LOG][Proc: 0]gather_RHS : 0 mu s
[OGL LOG][Proc: 0]gather_global_matrix : 1 mu s
[OGL LOG][Proc: 0]init_precond : 76 mu s
[OGL LOG][Proc: 0]generate_solver : 9 mu s
[OGL LOG][Proc: 0]solve : 32159606 mu s
nonecudaGKOCG:  Solving for p, Initial residual = 1, Final residual = 9.99748e-05, No Iterations 4110
linear solve p 761126811
time step continuity errors : sum local = 1.73242e-10, global = 1.81448e-22, cumulative = 1.81448e-22
[OGL LOG][Proc: 0]global_index_init : 6 mu s
[OGL LOG][Proc: 0]global_index_init : 0 mu s
[OGL LOG][Proc: 0]update_host_matrix_data : 846193 mu s
[OGL LOG][Proc: 0]gather_initGuess : 1 mu s
[OGL LOG][Proc: 0]gather_RHS : 0 mu s
[OGL LOG][Proc: 0]gather_global_matrix : 0 mu s
[OGL LOG][Proc: 0]init_precond : 42 mu s
[OGL LOG][Proc: 0]generate_solver : 1 mu s
[OGL LOG][Proc: 0]solve : 29441270 mu s
nonecudaGKOCG:  Solving for p, Initial residual = 1, Final residual = 8.57805e-05, No Iterations 3937
linear solve p 46241747
time step continuity errors : sum local = 4.78865e-11, global = -2.56071e-24, cumulative = 1.78887e-22
ExecutionTime = 5253.3 s  ClockTime = 5264 s

Time = 4e-05

Courant Number mean: 0.00105578 max: 0.0776342
DILUPBiCGStab:  Solving for Ux, Initial residual = 0.150267, Final residual = 0.0013289, No Iterations 5
DILUPBiCGStab:  Solving for Uy, Initial residual = 0.356029, Final residual = 0.00130322, No Iterations 5
DILUPBiCGStab:  Solving for Uz, Initial residual = 0.997787, Final residual = 0.00574254, No Iterations 5
linear solve U 44529220
[OGL LOG][Proc: 0]global_index_init : 8 mu s
[OGL LOG][Proc: 0]global_index_init : 1 mu s
[OGL LOG][Proc: 0]update_host_matrix_data : 852653 mu s
[OGL LOG][Proc: 0]gather_initGuess : 1 mu s
[OGL LOG][Proc: 0]gather_RHS : 0 mu s
[OGL LOG][Proc: 0]gather_global_matrix : 0 mu s
[OGL LOG][Proc: 0]init_precond : 36 mu s
[OGL LOG][Proc: 0]generate_solver : 0 mu s
[OGL LOG][Proc: 0]solve : 30864982 mu s
nonecudaGKOCG:  Solving for p, Initial residual = 1, Final residual = 4.79253e-05, No Iterations 4083
linear solve p 47563482
time step continuity errors : sum local = 9.99333e-11, global = 1.97099e-23, cumulative = 1.98597e-22
[OGL LOG][Proc: 0]global_index_init : 10 mu s
[OGL LOG][Proc: 0]global_index_init : 0 mu s
[OGL LOG][Proc: 0]update_host_matrix_data : 845967 mu s
[OGL LOG][Proc: 0]gather_initGuess : 1 mu s
[OGL LOG][Proc: 0]gather_RHS : 1 mu s
[OGL LOG][Proc: 0]gather_global_matrix : 0 mu s
[OGL LOG][Proc: 0]init_precond : 40 mu s
[OGL LOG][Proc: 0]generate_solver : 0 mu s
[OGL LOG][Proc: 0]solve : 29375798 mu s
nonecudaGKOCG:  Solving for p, Initial residual = 1, Final residual = 5.56824e-05, No Iterations 3913
linear solve p 46147259
time step continuity errors : sum local = 3.33253e-11, global = -2.59955e-24, cumulative = 1.95998e-22
ExecutionTime = 5419.36 s  ClockTime = 5433 s

Time = 6e-05

Courant Number mean: 0.00160706 max: 0.0884743
DILUPBiCGStab:  Solving for Ux, Initial residual = 0.0623705, Final residual = 0.000361958, No Iterations 5
DILUPBiCGStab:  Solving for Uy, Initial residual = 0.140295, Final residual = 0.000268615, No Iterations 5
DILUPBiCGStab:  Solving for Uz, Initial residual = 0.660619, Final residual = 0.00414772, No Iterations 5
linear solve U 44213780
[OGL LOG][Proc: 0]global_index_init : 11 mu s
[OGL LOG][Proc: 0]global_index_init : 0 mu s
[OGL LOG][Proc: 0]update_host_matrix_data : 850833 mu s
[OGL LOG][Proc: 0]gather_initGuess : 1 mu s
[OGL LOG][Proc: 0]gather_RHS : 0 mu s
[OGL LOG][Proc: 0]gather_global_matrix : 0 mu s
[OGL LOG][Proc: 0]init_precond : 35 mu s
[OGL LOG][Proc: 0]generate_solver : 0 mu s
[OGL LOG][Proc: 0]solve : 30354170 mu s
nonecudaGKOCG:  Solving for p, Initial residual = 1, Final residual = 2.48313e-05, No Iterations 4057
linear solve p 47052575
time step continuity errors : sum local = 3.35159e-11, global = -8.11765e-24, cumulative = 1.8788e-22
[OGL LOG][Proc: 0]global_index_init : 12 mu s
[OGL LOG][Proc: 0]global_index_init : 1 mu s
[OGL LOG][Proc: 0]update_host_matrix_data : 846322 mu s
[OGL LOG][Proc: 0]gather_initGuess : 1 mu s
[OGL LOG][Proc: 0]gather_RHS : 0 mu s
[OGL LOG][Proc: 0]gather_global_matrix : 0 mu s
[OGL LOG][Proc: 0]init_precond : 40 mu s
[OGL LOG][Proc: 0]generate_solver : 0 mu s
[OGL LOG][Proc: 0]solve : 29074148 mu s
nonecudaGKOCG:  Solving for p, Initial residual = 1, Final residual = 5.77859e-05, No Iterations 3889
linear solve p 45850253
time step continuity errors : sum local = 3.21311e-11, global = 4.91468e-23, cumulative = 2.37027e-22
ExecutionTime = 5584.84 s  ClockTime = 5601 s

Time = 8e-05

Courant Number mean: 0.00199289 max: 0.0913809
DILUPBiCGStab:  Solving for Ux, Initial residual = 0.0414951, Final residual = 0.000170923, No Iterations 5
DILUPBiCGStab:  Solving for Uy, Initial residual = 0.0887195, Final residual = 0.000153705, No Iterations 5
DILUPBiCGStab:  Solving for Uz, Initial residual = 0.16034, Final residual = 0.000690176, No Iterations 5
linear solve U 44321242
[OGL LOG][Proc: 0]global_index_init : 11 mu s
[OGL LOG][Proc: 0]global_index_init : 0 mu s
[OGL LOG][Proc: 0]update_host_matrix_data : 851366 mu s
[OGL LOG][Proc: 0]gather_initGuess : 1 mu s
[OGL LOG][Proc: 0]gather_RHS : 0 mu s
[OGL LOG][Proc: 0]gather_global_matrix : 0 mu s
[OGL LOG][Proc: 0]init_precond : 38 mu s
[OGL LOG][Proc: 0]generate_solver : 0 mu s
[OGL LOG][Proc: 0]solve : 28928321 mu s
nonecudaGKOCG:  Solving for p, Initial residual = 1, Final residual = 8.34623e-05, No Iterations 3876
linear solve p 45634804
time step continuity errors : sum local = 8.79898e-11, global = 1.58714e-23, cumulative = 2.52898e-22
[OGL LOG][Proc: 0]global_index_init : 8 mu s
[OGL LOG][Proc: 0]global_index_init : 1 mu s
[OGL LOG][Proc: 0]update_host_matrix_data : 846182 mu s
[OGL LOG][Proc: 0]gather_initGuess : 1 mu s
[OGL LOG][Proc: 0]gather_RHS : 0 mu s
[OGL LOG][Proc: 0]gather_global_matrix : 0 mu s
[OGL LOG][Proc: 0]init_precond : 45 mu s
[OGL LOG][Proc: 0]generate_solver : 1 mu s
[OGL LOG][Proc: 0]solve : 28992038 mu s
nonecudaGKOCG:  Solving for p, Initial residual = 1, Final residual = 4.19203e-05, No Iterations 3876
linear solve p 45732127
time step continuity errors : sum local = 2.37985e-11, global = -5.69391e-24, cumulative = 2.47204e-22
ExecutionTime = 5748.94 s  ClockTime = 5768 s

Time = 0.0001

Courant Number mean: 0.00230673 max: 0.092787
DILUPBiCGStab:  Solving for Ux, Initial residual = 0.0318138, Final residual = 9.03278e-05, No Iterations 5
DILUPBiCGStab:  Solving for Uy, Initial residual = 0.0636212, Final residual = 8.49969e-05, No Iterations 5
DILUPBiCGStab:  Solving for Uz, Initial residual = 0.0895762, Final residual = 0.000318939, No Iterations 5
linear solve U 44384296
[OGL LOG][Proc: 0]global_index_init : 10 mu s
[OGL LOG][Proc: 0]global_index_init : 1 mu s
[OGL LOG][Proc: 0]update_host_matrix_data : 850027 mu s
[OGL LOG][Proc: 0]gather_initGuess : 1 mu s
[OGL LOG][Proc: 0]gather_RHS : 0 mu s
[OGL LOG][Proc: 0]gather_global_matrix : 0 mu s
[OGL LOG][Proc: 0]init_precond : 38 mu s
[OGL LOG][Proc: 0]generate_solver : 0 mu s
[OGL LOG][Proc: 0]solve : 29181746 mu s
nonecudaGKOCG:  Solving for p, Initial residual = 1, Final residual = 6.92487e-05, No Iterations 3876
linear solve p 45888776
time step continuity errors : sum local = 5.32346e-11, global = -4.04206e-23, cumulative = 2.06784e-22
[OGL LOG][Proc: 0]global_index_init : 5 mu s
[OGL LOG][Proc: 0]global_index_init : 1 mu s
[OGL LOG][Proc: 0]update_host_matrix_data : 845825 mu s
[OGL LOG][Proc: 0]gather_initGuess : 1 mu s
[OGL LOG][Proc: 0]gather_RHS : 0 mu s
[OGL LOG][Proc: 0]gather_global_matrix : 0 mu s
[OGL LOG][Proc: 0]init_precond : 42 mu s
[OGL LOG][Proc: 0]generate_solver : 1 mu s
[OGL LOG][Proc: 0]solve : 28969524 mu s
nonecudaGKOCG:  Solving for p, Initial residual = 1, Final residual = 4.92308e-05, No Iterations 3876
linear solve p 45760610
time step continuity errors : sum local = 2.75569e-11, global = 2.28695e-23, cumulative = 2.29653e-22
ExecutionTime = 5912.97 s  ClockTime = 5935 s

Time = 0.00012

Courant Number mean: 0.00257532 max: 0.0936647
DILUPBiCGStab:  Solving for Ux, Initial residual = 0.0259269, Final residual = 6.65457e-05, No Iterations 5
DILUPBiCGStab:  Solving for Uy, Initial residual = 0.0500461, Final residual = 4.6057e-05, No Iterations 5
DILUPBiCGStab:  Solving for Uz, Initial residual = 0.0788214, Final residual = 0.000302608, No Iterations 5
linear solve U 44194825
[OGL LOG][Proc: 0]global_index_init : 9 mu s
[OGL LOG][Proc: 0]global_index_init : 0 mu s
[OGL LOG][Proc: 0]update_host_matrix_data : 851049 mu s
[OGL LOG][Proc: 0]gather_initGuess : 0 mu s
[OGL LOG][Proc: 0]gather_RHS : 0 mu s
[OGL LOG][Proc: 0]gather_global_matrix : 0 mu s
[OGL LOG][Proc: 0]init_precond : 37 mu s
[OGL LOG][Proc: 0]generate_solver : 0 mu s
[OGL LOG][Proc: 0]solve : 29802270 mu s
nonecudaGKOCG:  Solving for p, Initial residual = 1, Final residual = 8.53852e-05, No Iterations 3876
linear solve p 46522328
time step continuity errors : sum local = 6.10251e-11, global = 5.39154e-23, cumulative = 2.83568e-22
[OGL LOG][Proc: 0]global_index_init : 9 mu s
[OGL LOG][Proc: 0]global_index_init : 2 mu s
[OGL LOG][Proc: 0]update_host_matrix_data : 846022 mu s
[OGL LOG][Proc: 0]gather_initGuess : 1 mu s
[OGL LOG][Proc: 0]gather_RHS : 0 mu s
[OGL LOG][Proc: 0]gather_global_matrix : 0 mu s
[OGL LOG][Proc: 0]init_precond : 41 mu s
[OGL LOG][Proc: 0]generate_solver : 0 mu s
[OGL LOG][Proc: 0]solve : 29209802 mu s
nonecudaGKOCG:  Solving for p, Initial residual = 1, Final residual = 4.52169e-05, No Iterations 3876
linear solve p 45999164
time step continuity errors : sum local = 2.52888e-11, global = -4.87112e-24, cumulative = 2.78697e-22
ExecutionTime = 6077.51 s  ClockTime = 6103 s

Time = 0.00014

Courant Number mean: 0.00281282 max: 0.0942765
DILUPBiCGStab:  Solving for Ux, Initial residual = 0.0220102, Final residual = 4.61756e-05, No Iterations 5
DILUPBiCGStab:  Solving for Uy, Initial residual = 0.0411065, Final residual = 3.51453e-05, No Iterations 5
DILUPBiCGStab:  Solving for Uz, Initial residual = 0.0657013, Final residual = 0.000178423, No Iterations 5
linear solve U 54632861
[OGL LOG][Proc: 0]global_index_init : 11 mu s
[OGL LOG][Proc: 0]global_index_init : 1 mu s
[OGL LOG][Proc: 0]update_host_matrix_data : 851819 mu s
[OGL LOG][Proc: 0]gather_initGuess : 1 mu s
[OGL LOG][Proc: 0]gather_RHS : 0 mu s
[OGL LOG][Proc: 0]gather_global_matrix : 0 mu s
[OGL LOG][Proc: 0]init_precond : 48 mu s
[OGL LOG][Proc: 0]generate_solver : 0 mu s
[OGL LOG][Proc: 0]solve : 29077980 mu s
nonecudaGKOCG:  Solving for p, Initial residual = 1, Final residual = 7.90591e-05, No Iterations 3876
linear solve p 45824264
time step continuity errors : sum local = 5.1568e-11, global = 1.71114e-23, cumulative = 2.95809e-22
[OGL LOG][Proc: 0]global_index_init : 7 mu s
[OGL LOG][Proc: 0]global_index_init : 1 mu s
[OGL LOG][Proc: 0]update_host_matrix_data : 846728 mu s
[OGL LOG][Proc: 0]gather_initGuess : 1 mu s
[OGL LOG][Proc: 0]gather_RHS : 0 mu s
[OGL LOG][Proc: 0]gather_global_matrix : 0 mu s
[OGL LOG][Proc: 0]init_precond : 46 mu s
[OGL LOG][Proc: 0]generate_solver : 0 mu s
[OGL LOG][Proc: 0]solve : 28964237 mu s
nonecudaGKOCG:  Solving for p, Initial residual = 1, Final residual = 4.8114e-05, No Iterations 3876
linear solve p 45683293
time step continuity errors : sum local = 2.69067e-11, global = 8.40205e-24, cumulative = 3.04211e-22
ExecutionTime = 6251.84 s  ClockTime = 6280 s

Time = 0.00016

Courant Number mean: 0.00302701 max: 0.094736
DILUPBiCGStab:  Solving for Ux, Initial residual = 0.0191757, Final residual = 3.45613e-05, No Iterations 5
DILUPBiCGStab:  Solving for Uy, Initial residual = 0.034916, Final residual = 1.75232e-05, No Iterations 5
DILUPBiCGStab:  Solving for Uz, Initial residual = 0.0584109, Final residual = 0.000117013, No Iterations 5
linear solve U 44479792
[OGL LOG][Proc: 0]global_index_init : 12 mu s
[OGL LOG][Proc: 0]global_index_init : 1 mu s
[OGL LOG][Proc: 0]update_host_matrix_data : 852215 mu s
[OGL LOG][Proc: 0]gather_initGuess : 0 mu s
[OGL LOG][Proc: 0]gather_RHS : 0 mu s
[OGL LOG][Proc: 0]gather_global_matrix : 0 mu s
[OGL LOG][Proc: 0]init_precond : 39 mu s
[OGL LOG][Proc: 0]generate_solver : 0 mu s
[OGL LOG][Proc: 0]solve : 29113256 mu s
nonecudaGKOCG:  Solving for p, Initial residual = 1, Final residual = 6.17173e-05, No Iterations 3876
linear solve p 45885606
time step continuity errors : sum local = 3.8436e-11, global = 4.00143e-23, cumulative = 3.44225e-22
[OGL LOG][Proc: 0]global_index_init : 8 mu s
[OGL LOG][Proc: 0]global_index_init : 1 mu s
[OGL LOG][Proc: 0]update_host_matrix_data : 848710 mu s
[OGL LOG][Proc: 0]gather_initGuess : 1 mu s
[OGL LOG][Proc: 0]gather_RHS : 0 mu s
[OGL LOG][Proc: 0]gather_global_matrix : 0 mu s
[OGL LOG][Proc: 0]init_precond : 47 mu s
[OGL LOG][Proc: 0]generate_solver : 0 mu s
[OGL LOG][Proc: 0]solve : 29147458 mu s
nonecudaGKOCG:  Solving for p, Initial residual = 1, Final residual = 4.85894e-05, No Iterations 3876
linear solve p 45884882
time step continuity errors : sum local = 2.7141e-11, global = 4.196e-25, cumulative = 3.44645e-22
ExecutionTime = 6416.41 s  ClockTime = 6447 s

Time = 0.00018

Courant Number mean: 0.00322308 max: 0.0950968
DILUPBiCGStab:  Solving for Ux, Initial residual = 0.0170106, Final residual = 2.57448e-05, No Iterations 5
DILUPBiCGStab:  Solving for Uy, Initial residual = 0.0303405, Final residual = 1.57458e-05, No Iterations 5
DILUPBiCGStab:  Solving for Uz, Initial residual = 0.0518739, Final residual = 8.44578e-05, No Iterations 5
linear solve U 44360793
[OGL LOG][Proc: 0]global_index_init : 15 mu s
[OGL LOG][Proc: 0]global_index_init : 0 mu s
[OGL LOG][Proc: 0]update_host_matrix_data : 852121 mu s
[OGL LOG][Proc: 0]gather_initGuess : 1 mu s
[OGL LOG][Proc: 0]gather_RHS : 1 mu s
[OGL LOG][Proc: 0]gather_global_matrix : 0 mu s
[OGL LOG][Proc: 0]init_precond : 36 mu s
[OGL LOG][Proc: 0]generate_solver : 0 mu s
[OGL LOG][Proc: 0]solve : 29538058 mu s
nonecudaGKOCG:  Solving for p, Initial residual = 1, Final residual = 3.57777e-05, No Iterations 3876
linear solve p 46259508
time step continuity errors : sum local = 2.15947e-11, global = 3.49662e-23, cumulative = 3.79611e-22
[OGL LOG][Proc: 0]global_index_init : 8 mu s
[OGL LOG][Proc: 0]global_index_init : 1 mu s
[OGL LOG][Proc: 0]update_host_matrix_data : 847557 mu s
[OGL LOG][Proc: 0]gather_initGuess : 1 mu s
[OGL LOG][Proc: 0]gather_RHS : 0 mu s
[OGL LOG][Proc: 0]gather_global_matrix : 0 mu s
[OGL LOG][Proc: 0]init_precond : 43 mu s
[OGL LOG][Proc: 0]generate_solver : 0 mu s
[OGL LOG][Proc: 0]solve : 28998943 mu s
nonecudaGKOCG:  Solving for p, Initial residual = 1, Final residual = 5.04634e-05, No Iterations 3876
linear solve p 45794410
time step continuity errors : sum local = 2.82036e-11, global = -4.67308e-23, cumulative = 3.3288e-22
ExecutionTime = 6581 s  ClockTime = 6615 s

Time = 0.0002

Courant Number mean: 0.00340444 max: 0.0953899
DILUPBiCGStab:  Solving for Ux, Initial residual = 0.0153118, Final residual = 2.02389e-05, No Iterations 5
DILUPBiCGStab:  Solving for Uy, Initial residual = 0.0268154, Final residual = 8.9599e-06, No Iterations 5
DILUPBiCGStab:  Solving for Uz, Initial residual = 0.0469637, Final residual = 6.17228e-05, No Iterations 5
linear solve U 44289380
[OGL LOG][Proc: 0]global_index_init : 11 mu s
[OGL LOG][Proc: 0]global_index_init : 1 mu s
[OGL LOG][Proc: 0]update_host_matrix_data : 852792 mu s
[OGL LOG][Proc: 0]gather_initGuess : 1 mu s
[OGL LOG][Proc: 0]gather_RHS : 0 mu s
[OGL LOG][Proc: 0]gather_global_matrix : 0 mu s
[OGL LOG][Proc: 0]init_precond : 36 mu s
[OGL LOG][Proc: 0]generate_solver : 0 mu s
[OGL LOG][Proc: 0]solve : 27838030 mu s
nonecudaGKOCG:  Solving for p, Initial residual = 1, Final residual = 6.61552e-05, No Iterations 3721
linear solve p 44548575
time step continuity errors : sum local = 3.89589e-11, global = 4.91042e-24, cumulative = 3.37791e-22
[OGL LOG][Proc: 0]global_index_init : 6 mu s
[OGL LOG][Proc: 0]global_index_init : 1 mu s
[OGL LOG][Proc: 0]update_host_matrix_data : 846267 mu s
[OGL LOG][Proc: 0]gather_initGuess : 0 mu s
[OGL LOG][Proc: 0]gather_RHS : 0 mu s
[OGL LOG][Proc: 0]gather_global_matrix : 0 mu s
[OGL LOG][Proc: 0]init_precond : 41 mu s
[OGL LOG][Proc: 0]generate_solver : 0 mu s
[OGL LOG][Proc: 0]solve : 28696548 mu s
nonecudaGKOCG:  Solving for p, Initial residual = 1, Final residual = 6.09413e-05, No Iterations 3849
linear solve p 45474397
time step continuity errors : sum local = 3.40716e-11, global = -2.21953e-23, cumulative = 3.15595e-22
ExecutionTime = 6743.52 s  ClockTime = 6780 s

Time = 0.00022

Courant Number mean: 0.00357362 max: 0.0956343
DILUPBiCGStab:  Solving for Ux, Initial residual = 0.0139274, Final residual = 1.60225e-05, No Iterations 5
DILUPBiCGStab:  Solving for Uy, Initial residual = 0.0240234, Final residual = 8.15889e-06, No Iterations 5
DILUPBiCGStab:  Solving for Uz, Initial residual = 0.0427784, Final residual = 4.78702e-05, No Iterations 5
linear solve U 44198239
[OGL LOG][Proc: 0]global_index_init : 10 mu s
[OGL LOG][Proc: 0]global_index_init : 1 mu s
[OGL LOG][Proc: 0]update_host_matrix_data : 852026 mu s
[OGL LOG][Proc: 0]gather_initGuess : 1 mu s
[OGL LOG][Proc: 0]gather_RHS : 0 mu s
[OGL LOG][Proc: 0]gather_global_matrix : 0 mu s
[OGL LOG][Proc: 0]init_precond : 41 mu s
[OGL LOG][Proc: 0]generate_solver : 0 mu s
[OGL LOG][Proc: 0]solve : 28927169 mu s
nonecudaGKOCG:  Solving for p, Initial residual = 1, Final residual = 2.63923e-05, No Iterations 3826
linear solve p 45633080
time step continuity errors : sum local = 1.53456e-11, global = 4.31343e-24, cumulative = 3.19909e-22
[OGL LOG][Proc: 0]global_index_init : 7 mu s
[OGL LOG][Proc: 0]global_index_init : 0 mu s
[OGL LOG][Proc: 0]update_host_matrix_data : 846860 mu s
[OGL LOG][Proc: 0]gather_initGuess : 1 mu s
[OGL LOG][Proc: 0]gather_RHS : 1 mu s
[OGL LOG][Proc: 0]gather_global_matrix : 0 mu s
[OGL LOG][Proc: 0]init_precond : 41 mu s
[OGL LOG][Proc: 0]generate_solver : 1 mu s
[OGL LOG][Proc: 0]solve : 28930977 mu s
nonecudaGKOCG:  Solving for p, Initial residual = 1, Final residual = 7.2133e-05, No Iterations 3826
linear solve p 45707041
time step continuity errors : sum local = 4.03371e-11, global = 4.7842e-23, cumulative = 3.67751e-22
ExecutionTime = 6907.38 s  ClockTime = 6947 s

Time = 0.00024

Courant Number mean: 0.0037325 max: 0.0958419
DILUPBiCGStab:  Solving for Ux, Initial residual = 0.0127847, Final residual = 1.31272e-05, No Iterations 5
DILUPBiCGStab:  Solving for Uy, Initial residual = 0.0217498, Final residual = 5.57271e-06, No Iterations 5
DILUPBiCGStab:  Solving for Uz, Initial residual = 0.0392918, Final residual = 3.82289e-05, No Iterations 5
linear solve U 44160410
[OGL LOG][Proc: 0]global_index_init : 10 mu s
[OGL LOG][Proc: 0]global_index_init : 0 mu s
[OGL LOG][Proc: 0]update_host_matrix_data : 850449 mu s
[OGL LOG][Proc: 0]gather_initGuess : 1 mu s
[OGL LOG][Proc: 0]gather_RHS : 0 mu s
[OGL LOG][Proc: 0]gather_global_matrix : 0 mu s
[OGL LOG][Proc: 0]init_precond : 35 mu s
[OGL LOG][Proc: 0]generate_solver : 0 mu s
[OGL LOG][Proc: 0]solve : 27792986 mu s
nonecudaGKOCG:  Solving for p, Initial residual = 1, Final residual = 9.49481e-05, No Iterations 3673
linear solve p 44501175
time step continuity errors : sum local = 5.46633e-11, global = -5.00017e-23, cumulative = 3.17749e-22
[OGL LOG][Proc: 0]global_index_init : 7 mu s
[OGL LOG][Proc: 0]global_index_init : 1 mu s
[OGL LOG][Proc: 0]update_host_matrix_data : 846391 mu s
[OGL LOG][Proc: 0]gather_initGuess : 1 mu s
[OGL LOG][Proc: 0]gather_RHS : 0 mu s
[OGL LOG][Proc: 0]gather_global_matrix : 0 mu s
[OGL LOG][Proc: 0]init_precond : 46 mu s
[OGL LOG][Proc: 0]generate_solver : 1 mu s
[OGL LOG][Proc: 0]solve : 28729600 mu s
nonecudaGKOCG:  Solving for p, Initial residual = 1, Final residual = 8.92475e-05, No Iterations 3797
linear solve p 45462930
time step continuity errors : sum local = 4.99594e-11, global = -3.93993e-23, cumulative = 2.7835e-22
ExecutionTime = 7069.66 s  ClockTime = 7112 s

Time = 0.00026

Courant Number mean: 0.00388256 max: 0.0960213
DILUPBiCGStab:  Solving for Ux, Initial residual = 0.0118175, Final residual = 1.08512e-05, No Iterations 5
DILUPBiCGStab:  Solving for Uy, Initial residual = 0.0198681, Final residual = 5.01526e-06, No Iterations 5
DILUPBiCGStab:  Solving for Uz, Initial residual = 0.0363451, Final residual = 3.1264e-05, No Iterations 5
linear solve U 44269337
[OGL LOG][Proc: 0]global_index_init : 8 mu s
[OGL LOG][Proc: 0]global_index_init : 1 mu s
[OGL LOG][Proc: 0]update_host_matrix_data : 851212 mu s
[OGL LOG][Proc: 0]gather_initGuess : 1 mu s
[OGL LOG][Proc: 0]gather_RHS : 0 mu s
[OGL LOG][Proc: 0]gather_global_matrix : 0 mu s
[OGL LOG][Proc: 0]init_precond : 36 mu s
[OGL LOG][Proc: 0]generate_solver : 0 mu s
[OGL LOG][Proc: 0]solve : 28358299 mu s
nonecudaGKOCG:  Solving for p, Initial residual = 1, Final residual = 7.39388e-05, No Iterations 3776
linear solve p 45062871
time step continuity errors : sum local = 4.2284e-11, global = -6.30486e-23, cumulative = 2.15301e-22
[OGL LOG][Proc: 0]global_index_init : 7 mu s
[OGL LOG][Proc: 0]global_index_init : 1 mu s
[OGL LOG][Proc: 0]update_host_matrix_data : 846732 mu s
[OGL LOG][Proc: 0]gather_initGuess : 1 mu s
[OGL LOG][Proc: 0]gather_RHS : 0 mu s
[OGL LOG][Proc: 0]gather_global_matrix : 0 mu s
[OGL LOG][Proc: 0]init_precond : 45 mu s
[OGL LOG][Proc: 0]generate_solver : 0 mu s
[OGL LOG][Proc: 0]solve : 29271877 mu s
nonecudaGKOCG:  Solving for p, Initial residual = 1, Final residual = 3.71103e-05, No Iterations 3927
linear solve p 46011961
time step continuity errors : sum local = 2.07823e-11, global = -8.08457e-23, cumulative = 1.34455e-22
ExecutionTime = 7233.31 s  ClockTime = 7278 s

Time = 0.00028

Courant Number mean: 0.00402486 max: 0.0961781
DILUPBiCGStab:  Solving for Ux, Initial residual = 0.0109922, Final residual = 9.15346e-06, No Iterations 5
DILUPBiCGStab:  Solving for Uy, Initial residual = 0.0182806, Final residual = 3.95083e-06, No Iterations 5
DILUPBiCGStab:  Solving for Uz, Initial residual = 0.033825, Final residual = 2.60142e-05, No Iterations 5
linear solve U 44244264
[OGL LOG][Proc: 0]global_index_init : 7 mu s
[OGL LOG][Proc: 0]global_index_init : 0 mu s
[OGL LOG][Proc: 0]update_host_matrix_data : 851027 mu s
[OGL LOG][Proc: 0]gather_initGuess : 1 mu s
[OGL LOG][Proc: 0]gather_RHS : 1 mu s
[OGL LOG][Proc: 0]gather_global_matrix : 0 mu s
[OGL LOG][Proc: 0]init_precond : 38 mu s
[OGL LOG][Proc: 0]generate_solver : 1 mu s
[OGL LOG][Proc: 0]solve : 24620842 mu s
nonecudaGKOCG:  Solving for p, Initial residual = 1, Final residual = 7.28522e-05, No Iterations 3298
linear solve p 41323621
time step continuity errors : sum local = 4.16136e-11, global = -1.38424e-23, cumulative = 1.20613e-22
[OGL LOG][Proc: 0]global_index_init : 7 mu s
[OGL LOG][Proc: 0]global_index_init : 1 mu s
[OGL LOG][Proc: 0]update_host_matrix_data : 847228 mu s
[OGL LOG][Proc: 0]gather_initGuess : 1 mu s
[OGL LOG][Proc: 0]gather_RHS : 1 mu s
[OGL LOG][Proc: 0]gather_global_matrix : 0 mu s
[OGL LOG][Proc: 0]init_precond : 48 mu s
[OGL LOG][Proc: 0]generate_solver : 0 mu s
[OGL LOG][Proc: 0]solve : 20580201 mu s
nonecudaGKOCG:  Solving for p, Initial residual = 1, Final residual = 7.6356e-05, No Iterations 2752
linear solve p 37317762
time step continuity errors : sum local = 4.35108e-11, global = 1.3005e-23, cumulative = 1.33618e-22
ExecutionTime = 7385.01 s  ClockTime = 7432 s

Time = 0.0003

Courant Number mean: 0.00416031 max: 0.0963169
DILUPBiCGStab:  Solving for Ux, Initial residual = 0.0102754, Final residual = 7.80446e-06, No Iterations 5
DILUPBiCGStab:  Solving for Uy, Initial residual = 0.016928, Final residual = 3.55779e-06, No Iterations 5
DILUPBiCGStab:  Solving for Uz, Initial residual = 0.0315255, Final residual = 2.30318e-05, No Iterations 5
linear solve U 44325113
[OGL LOG][Proc: 0]global_index_init : 8 mu s
[OGL LOG][Proc: 0]global_index_init : 0 mu s
[OGL LOG][Proc: 0]update_host_matrix_data : 851303 mu s
[OGL LOG][Proc: 0]gather_initGuess : 1 mu s
[OGL LOG][Proc: 0]gather_RHS : 0 mu s
[OGL LOG][Proc: 0]gather_global_matrix : 0 mu s
[OGL LOG][Proc: 0]init_precond : 37 mu s
[OGL LOG][Proc: 0]generate_solver : 0 mu s
[OGL LOG][Proc: 0]solve : 28408762 mu s
nonecudaGKOCG:  Solving for p, Initial residual = 1, Final residual = 6.16635e-05, No Iterations 3741
linear solve p 45111513
time step continuity errors : sum local = 3.50137e-11, global = -1.27085e-22, cumulative = 6.53255e-24
[OGL LOG][Proc: 0]global_index_init : 6 mu s
[OGL LOG][Proc: 0]global_index_init : 0 mu s
[OGL LOG][Proc: 0]update_host_matrix_data : 847552 mu s
[OGL LOG][Proc: 0]gather_initGuess : 1 mu s
[OGL LOG][Proc: 0]gather_RHS : 0 mu s
[OGL LOG][Proc: 0]gather_global_matrix : 0 mu s
[OGL LOG][Proc: 0]init_precond : 41 mu s
[OGL LOG][Proc: 0]generate_solver : 1 mu s
[OGL LOG][Proc: 0]solve : 29140515 mu s
nonecudaGKOCG:  Solving for p, Initial residual = 1, Final residual = 6.30276e-05, No Iterations 3875
linear solve p 45934628
time step continuity errors : sum local = 3.53454e-11, global = -3.40816e-23, cumulative = -2.75491e-23
ExecutionTime = 7548.56 s  ClockTime = 7598 s

Time = 0.00032

Courant Number mean: 0.00428975 max: 0.0964407
DILUPBiCGStab:  Solving for Ux, Initial residual = 0.00965, Final residual = 6.74023e-06, No Iterations 5
DILUPBiCGStab:  Solving for Uy, Initial residual = 0.0157555, Final residual = 3.04471e-06, No Iterations 5
DILUPBiCGStab:  Solving for Uz, Initial residual = 0.0296109, Final residual = 1.92578e-05, No Iterations 5
linear solve U 44174616
[OGL LOG][Proc: 0]global_index_init : 7 mu s
[OGL LOG][Proc: 0]global_index_init : 1 mu s
[OGL LOG][Proc: 0]update_host_matrix_data : 850092 mu s
[OGL LOG][Proc: 0]gather_initGuess : 1 mu s
[OGL LOG][Proc: 0]gather_RHS : 0 mu s
[OGL LOG][Proc: 0]gather_global_matrix : 0 mu s
[OGL LOG][Proc: 0]init_precond : 38 mu s
[OGL LOG][Proc: 0]generate_solver : 0 mu s
[OGL LOG][Proc: 0]solve : 29135139 mu s
nonecudaGKOCG:  Solving for p, Initial residual = 1, Final residual = 5.54338e-05, No Iterations 3876
linear solve p 45836955
time step continuity errors : sum local = 3.14796e-11, global = -7.07557e-23, cumulative = -9.83048e-23
[OGL LOG][Proc: 0]global_index_init : 7 mu s
[OGL LOG][Proc: 0]global_index_init : 0 mu s
[OGL LOG][Proc: 0]update_host_matrix_data : 845988 mu s
[OGL LOG][Proc: 0]gather_initGuess : 1 mu s
[OGL LOG][Proc: 0]gather_RHS : 0 mu s
[OGL LOG][Proc: 0]gather_global_matrix : 0 mu s
[OGL LOG][Proc: 0]init_precond : 51 mu s
[OGL LOG][Proc: 0]generate_solver : 1 mu s
[OGL LOG][Proc: 0]solve : 29000666 mu s
nonecudaGKOCG:  Solving for p, Initial residual = 1, Final residual = 6.47996e-05, No Iterations 3876
linear solve p 45782973
time step continuity errors : sum local = 3.63644e-11, global = 1.23763e-24, cumulative = -9.70672e-23
ExecutionTime = 7712.78 s  ClockTime = 7765 s

Time = 0.00034

Courant Number mean: 0.00441375 max: 0.0965522
DILUPBiCGStab:  Solving for Ux, Initial residual = 0.00909654, Final residual = 5.88307e-06, No Iterations 5
DILUPBiCGStab:  Solving for Uy, Initial residual = 0.0147345, Final residual = 2.76528e-06, No Iterations 5
DILUPBiCGStab:  Solving for Uz, Initial residual = 0.0278105, Final residual = 1.62722e-05, No Iterations 5
linear solve U 44181063
[OGL LOG][Proc: 0]global_index_init : 8 mu s
[OGL LOG][Proc: 0]global_index_init : 1 mu s
[OGL LOG][Proc: 0]update_host_matrix_data : 853502 mu s
[OGL LOG][Proc: 0]gather_initGuess : 1 mu s
[OGL LOG][Proc: 0]gather_RHS : 0 mu s
[OGL LOG][Proc: 0]gather_global_matrix : 0 mu s
[OGL LOG][Proc: 0]init_precond : 38 mu s
[OGL LOG][Proc: 0]generate_solver : 0 mu s
[OGL LOG][Proc: 0]solve : 23497321 mu s
nonecudaGKOCG:  Solving for p, Initial residual = 1, Final residual = 9.80253e-05, No Iterations 3101
linear solve p 40207885
time step continuity errors : sum local = 5.57929e-11, global = -5.26661e-23, cumulative = -1.49733e-22
[OGL LOG][Proc: 0]global_index_init : 8 mu s
[OGL LOG][Proc: 0]global_index_init : 1 mu s
[OGL LOG][Proc: 0]update_host_matrix_data : 845242 mu s
[OGL LOG][Proc: 0]gather_initGuess : 1 mu s
[OGL LOG][Proc: 0]gather_RHS : 0 mu s
[OGL LOG][Proc: 0]gather_global_matrix : 0 mu s
[OGL LOG][Proc: 0]init_precond : 41 mu s
[OGL LOG][Proc: 0]generate_solver : 1 mu s
[OGL LOG][Proc: 0]solve : 18557897 mu s
nonecudaGKOCG:  Solving for p, Initial residual = 1, Final residual = 3.31067e-05, No Iterations 2481
linear solve p 35581361
time step continuity errors : sum local = 1.93315e-11, global = -1.22711e-23, cumulative = -1.62004e-22
ExecutionTime = 7861.86 s  ClockTime = 7916 s

Time = 0.00036

Courant Number mean: 0.0045328 max: 0.0966531
DILUPBiCGStab:  Solving for Ux, Initial residual = 0.00860427, Final residual = 5.19107e-06, No Iterations 5
DILUPBiCGStab:  Solving for Uy, Initial residual = 0.013836, Final residual = 2.47198e-06, No Iterations 5
DILUPBiCGStab:  Solving for Uz, Initial residual = 0.0262786, Final residual = 1.46064e-05, No Iterations 5
linear solve U 44382311
[OGL LOG][Proc: 0]global_index_init : 8 mu s
[OGL LOG][Proc: 0]global_index_init : 1 mu s
[OGL LOG][Proc: 0]update_host_matrix_data : 854331 mu s
[OGL LOG][Proc: 0]gather_initGuess : 1 mu s
[OGL LOG][Proc: 0]gather_RHS : 0 mu s
[OGL LOG][Proc: 0]gather_global_matrix : 0 mu s
[OGL LOG][Proc: 0]init_precond : 37 mu s
[OGL LOG][Proc: 0]generate_solver : 0 mu s
[OGL LOG][Proc: 0]solve : 15649604 mu s
nonecudaGKOCG:  Solving for p, Initial residual = 1, Final residual = 4.3759e-05, No Iterations 2080
linear solve p 32350155
time step continuity errors : sum local = 2.59301e-11, global = -3.88486e-23, cumulative = -2.00853e-22
[OGL LOG][Proc: 0]global_index_init : 10 mu s
[OGL LOG][Proc: 0]global_index_init : 1 mu s
[OGL LOG][Proc: 0]update_host_matrix_data : 846212 mu s
[OGL LOG][Proc: 0]gather_initGuess : 1 mu s
[OGL LOG][Proc: 0]gather_RHS : 0 mu s
[OGL LOG][Proc: 0]gather_global_matrix : 0 mu s
[OGL LOG][Proc: 0]init_precond : 46 mu s
[OGL LOG][Proc: 0]generate_solver : 0 mu s
[OGL LOG][Proc: 0]solve : 13071533 mu s
nonecudaGKOCG:  Solving for p, Initial residual = 1, Final residual = 6.01555e-05, No Iterations 1744
linear solve p 29806281
time step continuity errors : sum local = 3.48003e-11, global = -1.09368e-22, cumulative = -3.10221e-22
ExecutionTime = 7997.91 s  ClockTime = 8054 s

Time = 0.00038

Courant Number mean: 0.00464746 max: 0.0967452
DILUPBiCGStab:  Solving for Ux, Initial residual = 0.00816342, Final residual = 4.62319e-06, No Iterations 5
DILUPBiCGStab:  Solving for Uy, Initial residual = 0.0130379, Final residual = 2.26818e-06, No Iterations 5
DILUPBiCGStab:  Solving for Uz, Initial residual = 0.0249176, Final residual = 1.26573e-05, No Iterations 5
linear solve U 54731682
[OGL LOG][Proc: 0]global_index_init : 9 mu s
[OGL LOG][Proc: 0]global_index_init : 1 mu s
[OGL LOG][Proc: 0]update_host_matrix_data : 850600 mu s
[OGL LOG][Proc: 0]gather_initGuess : 1 mu s
[OGL LOG][Proc: 0]gather_RHS : 0 mu s
[OGL LOG][Proc: 0]gather_global_matrix : 0 mu s
[OGL LOG][Proc: 0]init_precond : 44 mu s
[OGL LOG][Proc: 0]generate_solver : 0 mu s
[OGL LOG][Proc: 0]solve : 12976276 mu s
nonecudaGKOCG:  Solving for p, Initial residual = 1, Final residual = 9.17079e-05, No Iterations 1726
linear solve p 29727486
time step continuity errors : sum local = 5.19403e-11, global = 2.35113e-24, cumulative = -3.0787e-22
[OGL LOG][Proc: 0]global_index_init : 11 mu s
[OGL LOG][Proc: 0]global_index_init : 1 mu s
[OGL LOG][Proc: 0]update_host_matrix_data : 849531 mu s
[OGL LOG][Proc: 0]gather_initGuess : 1 mu s
[OGL LOG][Proc: 0]gather_RHS : 0 mu s
[OGL LOG][Proc: 0]gather_global_matrix : 0 mu s
[OGL LOG][Proc: 0]init_precond : 53 mu s
[OGL LOG][Proc: 0]generate_solver : 1 mu s
[OGL LOG][Proc: 0]solve : 13025959 mu s
nonecudaGKOCG:  Solving for p, Initial residual = 1, Final residual = 6.86424e-05, No Iterations 1726
linear solve p 29656123
time step continuity errors : sum local = 3.92297e-11, global = 1.0419e-22, cumulative = -2.0368e-22
ExecutionTime = 8141.55 s  ClockTime = 8199 s

Time = 0.0004

Courant Number mean: 0.00475798 max: 0.0968295
DILUPBiCGStab:  Solving for Ux, Initial residual = 0.00776558, Final residual = 4.15585e-06, No Iterations 5
DILUPBiCGStab:  Solving for Uy, Initial residual = 0.0123266, Final residual = 2.07433e-06, No Iterations 5
DILUPBiCGStab:  Solving for Uz, Initial residual = 0.0236011, Final residual = 1.20471e-05, No Iterations 5
linear solve U 54919427
[OGL LOG][Proc: 0]global_index_init : 8 mu s
[OGL LOG][Proc: 0]global_index_init : 0 mu s
[OGL LOG][Proc: 0]update_host_matrix_data : 852182 mu s
[OGL LOG][Proc: 0]gather_initGuess : 0 mu s
[OGL LOG][Proc: 0]gather_RHS : 0 mu s
[OGL LOG][Proc: 0]gather_global_matrix : 0 mu s
[OGL LOG][Proc: 0]init_precond : 36 mu s
[OGL LOG][Proc: 0]generate_solver : 0 mu s
[OGL LOG][Proc: 0]solve : 12937742 mu s
nonecudaGKOCG:  Solving for p, Initial residual = 1, Final residual = 9.16964e-05, No Iterations 1726
linear solve p 29648691
time step continuity errors : sum local = 5.34376e-11, global = -1.05797e-22, cumulative = -3.09478e-22
[OGL LOG][Proc: 0]global_index_init : 6 mu s
[OGL LOG][Proc: 0]global_index_init : 0 mu s
[OGL LOG][Proc: 0]update_host_matrix_data : 846555 mu s
[OGL LOG][Proc: 0]gather_initGuess : 1 mu s
[OGL LOG][Proc: 0]gather_RHS : 0 mu s
[OGL LOG][Proc: 0]gather_global_matrix : 0 mu s
[OGL LOG][Proc: 0]init_precond : 45 mu s
[OGL LOG][Proc: 0]generate_solver : 1 mu s
[OGL LOG][Proc: 0]solve : 12946798 mu s
nonecudaGKOCG:  Solving for p, Initial residual = 1, Final residual = 6.91766e-05, No Iterations 1726
linear solve p 29879179
time step continuity errors : sum local = 3.99866e-11, global = -5.96185e-23, cumulative = -3.69096e-22
ExecutionTime = 8285.73 s  ClockTime = 8344 s

End

Finalising parallel run
================================================================================

============================= JOB FEEDBACK =============================

Job ID: 1744710
Cluster: hk
User/Group: eq4036/hk-project-test-fine
State: COMPLETED (exit code 0)
Partition: accelerated
Nodes: 4
Cores per node: 152
Nodelist: hkn[0527-0530]
CPU Utilized: 02:04:37
CPU Efficiency: 0.64% of 13-14:58:08 core-walltime
Job Wall-clock time: 00:32:16
Starttime: Thu May 19 06:14:26 2022
Endtime: Thu May 19 06:46:42 2022
Memory Utilized: 51.06 GB
Memory Efficiency: 2.61% of 1.91 TB
Energy Consumed: 6361953 Joule / 1767.20916666667 Watthours
Average node power draw: 3286.13274793388 Watt
hash: f9c16387980ff95328e528a2f26a5f11
/*---------------------------------------------------------------------------*\
| =========                 |                                                 |
| \\      /  F ield         | OpenFOAM: The Open Source CFD Toolbox           |
|  \\    /   O peration     | Version:  2112                                  |
|   \\  /    A nd           | Website:  www.openfoam.com                      |
|    \\/     M anipulation  |                                                 |
\*---------------------------------------------------------------------------*/
Build  : d44c8318f0-20220111 OPENFOAM=2112 version=v2112
Arch   : "LSB;label=32;scalar=64"
Exec   : icoFoam -parallel
Date   : May 19 2022
Time   : 06:14:50
Host   : hkn0527.localdomain
PID    : 2661982
I/O    : uncollated
Case   : /hkfs/work/workspace/scratch/eq4036-lidDrivenCavity/simple/Variation_mesh/500/Variation_matrix_solver/CG_NoPrecond_CUDA/Variation_mpiRank_gko/16/base
nProcs : 16
Hosts  :
(
    (hkn0527.localdomain 4)
    (hkn0528.localdomain 4)
    (hkn0529.localdomain 4)
    (hkn0530.localdomain 4)
)
Pstream initialized with:
    floatTransfer      : 0
    nProcsSimpleSum    : 0
    commsType          : nonBlocking
    polling iterations : 0
trapFpe: Floating point exception trapping enabled (FOAM_SIGFPE).
fileModificationChecking : Monitoring run-time modified files using timeStampMaster (fileModificationSkew 5, maxFileModificationPolls 20)
allowSystemOperations : Allowing user-supplied system call operations

// * * * * * * * * * * * * * * * * * * * * * * * * * * * * * * * * * * * * * //
Create time

Create mesh for time = 0


PISO: Operating solver in PISO mode

Reading transportProperties

Reading field p

Reading field U

Reading/calculating face flux field phi


Starting time loop

Time = 2e-05

Courant Number mean: 0 max: 0
DILUPBiCGStab:  Solving for Ux, Initial residual = 1, Final residual = 0.00248691, No Iterations 5
DILUPBiCGStab:  Solving for Uy:  solution singularity
DILUPBiCGStab:  Solving for Uz:  solution singularity
linear solve U 5414719
[OGL LOG][Proc: 0]global_index_init : 99284 mu s
[OGL LOG][Proc: 0]global_index_init : 4 mu s
[OGL LOG][Proc: 0]init_host_sparsity_pattern : 627577578 mu s
[OGL LOG][Proc: 0]update_host_matrix_data : 212033 mu s
[OGL LOG][Proc: 0]convert_coo_to_csr : 4019973 mu s
[OGL LOG][Proc: 0]gather_initGuess : 8 mu s
[OGL LOG][Proc: 0]gather_RHS : 0 mu s
[OGL LOG][Proc: 0]gather_global_matrix : 1 mu s
[OGL LOG][Proc: 0]init_precond : 77 mu s
[OGL LOG][Proc: 0]generate_solver : 8 mu s
[OGL LOG][Proc: 0]solve : 11161810 mu s
nonecudaGKOCG:  Solving for p, Initial residual = 1, Final residual = 9.99391e-05, No Iterations 4109
linear solve p 953607620
time step continuity errors : sum local = 1.75919e-10, global = 1.78821e-22, cumulative = 1.78821e-22
[OGL LOG][Proc: 0]global_index_init : 15 mu s
[OGL LOG][Proc: 0]global_index_init : 2 mu s
[OGL LOG][Proc: 0]update_host_matrix_data : 213386 mu s
[OGL LOG][Proc: 0]gather_initGuess : 1 mu s
[OGL LOG][Proc: 0]gather_RHS : 0 mu s
[OGL LOG][Proc: 0]gather_global_matrix : 0 mu s
[OGL LOG][Proc: 0]init_precond : 38 mu s
[OGL LOG][Proc: 0]generate_solver : 0 mu s
[OGL LOG][Proc: 0]solve : 9996667 mu s
nonecudaGKOCG:  Solving for p, Initial residual = 1, Final residual = 8.63783e-05, No Iterations 3937
linear solve p 15131581
time step continuity errors : sum local = 4.83438e-11, global = -5.51836e-23, cumulative = 1.23637e-22
ExecutionTime = 1004.98 s  ClockTime = 1010 s

Time = 4e-05

Courant Number mean: 0.00105495 max: 0.0776398
DILUPBiCGStab:  Solving for Ux, Initial residual = 0.150282, Final residual = 0.00156921, No Iterations 5
DILUPBiCGStab:  Solving for Uy, Initial residual = 0.356216, Final residual = 0.00178471, No Iterations 5
DILUPBiCGStab:  Solving for Uz, Initial residual = 0.99463, Final residual = 0.00684822, No Iterations 5
linear solve U 10888837
[OGL LOG][Proc: 0]global_index_init : 14 mu s
[OGL LOG][Proc: 0]global_index_init : 2 mu s
[OGL LOG][Proc: 0]update_host_matrix_data : 216062 mu s
[OGL LOG][Proc: 0]gather_initGuess : 1 mu s
[OGL LOG][Proc: 0]gather_RHS : 0 mu s
[OGL LOG][Proc: 0]gather_global_matrix : 0 mu s
[OGL LOG][Proc: 0]init_precond : 34 mu s
[OGL LOG][Proc: 0]generate_solver : 0 mu s
[OGL LOG][Proc: 0]solve : 10377167 mu s
nonecudaGKOCG:  Solving for p, Initial residual = 1, Final residual = 4.65944e-05, No Iterations 4083
linear solve p 15534882
time step continuity errors : sum local = 1.00456e-10, global = -7.38208e-23, cumulative = 4.98161e-23
[OGL LOG][Proc: 0]global_index_init : 21 mu s
[OGL LOG][Proc: 0]global_index_init : 2 mu s
[OGL LOG][Proc: 0]update_host_matrix_data : 215176 mu s
[OGL LOG][Proc: 0]gather_initGuess : 0 mu s
[OGL LOG][Proc: 0]gather_RHS : 0 mu s
[OGL LOG][Proc: 0]gather_global_matrix : 0 mu s
[OGL LOG][Proc: 0]init_precond : 33 mu s
[OGL LOG][Proc: 0]generate_solver : 0 mu s
[OGL LOG][Proc: 0]solve : 9928088 mu s
nonecudaGKOCG:  Solving for p, Initial residual = 1, Final residual = 5.56178e-05, No Iterations 3913
linear solve p 15053909
time step continuity errors : sum local = 3.34562e-11, global = 1.20625e-23, cumulative = 6.18786e-23
ExecutionTime = 1052.2 s  ClockTime = 1059 s

Time = 6e-05

Courant Number mean: 0.00160603 max: 0.0884737
DILUPBiCGStab:  Solving for Ux, Initial residual = 0.0624054, Final residual = 0.000426754, No Iterations 5
DILUPBiCGStab:  Solving for Uy, Initial residual = 0.140393, Final residual = 0.000410305, No Iterations 5
DILUPBiCGStab:  Solving for Uz, Initial residual = 0.668705, Final residual = 0.00545981, No Iterations 5
linear solve U 10934832
[OGL LOG][Proc: 0]global_index_init : 12 mu s
[OGL LOG][Proc: 0]global_index_init : 2 mu s
[OGL LOG][Proc: 0]update_host_matrix_data : 216030 mu s
[OGL LOG][Proc: 0]gather_initGuess : 1 mu s
[OGL LOG][Proc: 0]gather_RHS : 0 mu s
[OGL LOG][Proc: 0]gather_global_matrix : 0 mu s
[OGL LOG][Proc: 0]init_precond : 45 mu s
[...]
Memory Utilized: 34.91 MB
Memory Efficiency: 0.00% of 712.50 GB
Energy Consumed: 11728 Joule / 3.25777777777778 Watthours
Average node power draw: 390.933333333333 Watt
hash: d44e76f331c1ef15ddaca52497053cdd
/*---------------------------------------------------------------------------*\
| =========                 |                                                 |
| \\      /  F ield         | OpenFOAM: The Open Source CFD Toolbox           |
|  \\    /   O peration     | Version:  2112                                  |
|   \\  /    A nd           | Website:  www.openfoam.com                      |
|    \\/     M anipulation  |                                                 |
\*---------------------------------------------------------------------------*/
Build  : d44c8318f0-20220111 OPENFOAM=2112 version=v2112
Arch   : "LSB;label=32;scalar=64"
Exec   : icoFoam -parallel
Date   : May 20 2022
Time   : 20:28:16
Host   : hkn0331.localdomain
PID    : 2855804
I/O    : uncollated
Case   : /hkfs/work/workspace/scratch/eq4036-lidDrivenCavity/simple/Variation_mesh/100/Variation_matrix_solver/CG_NoPrecond_DefaultOF/Variation_mpiRank_of/256/base
nProcs : 256
Hosts  :
(
    (hkn0331.localdomain 64)
    (hkn0332.localdomain 64)
    (hkn0333.localdomain 64)
    (hkn0335.localdomain 64)
)
Pstream initialized with:
    floatTransfer      : 0
    nProcsSimpleSum    : 0
    commsType          : nonBlocking
    polling iterations : 0
trapFpe: Floating point exception trapping enabled (FOAM_SIGFPE).
fileModificationChecking : Monitoring run-time modified files using timeStampMaster (fileModificationSkew 5, maxFileModificationPolls 20)
allowSystemOperations : Allowing user-supplied system call operations

// * * * * * * * * * * * * * * * * * * * * * * * * * * * * * * * * * * * * * //
Create time

Create mesh for time = 0


PISO: Operating solver in PISO mode

Reading transportProperties

Reading field p

Reading field U

Reading/calculating face flux field phi


Starting time loop

Time = 0.0001

Courant Number mean: 0 max: 0
DILUPBiCGStab:  Solving for Ux, Initial residual = 1, Final residual = 1.21001e-05, No Iterations 5
DILUPBiCGStab:  Solving for Uy:  solution singularity
DILUPBiCGStab:  Solving for Uz:  solution singularity
linear solve U 4909
nonePCG:  Solving for p, Initial residual = 1, Final residual = 9.70738e-05, No Iterations 794
linear solve p 68637
time step continuity errors : sum local = 1.71523e-09, global = -6.4955e-22, cumulative = -6.4955e-22
nonePCG:  Solving for p, Initial residual = 0.559958, Final residual = 9.77642e-05, No Iterations 777
linear solve p 64007
time step continuity errors : sum local = 2.67441e-09, global = -1.6108e-21, cumulative = -2.26035e-21
ExecutionTime = 0.61 s  ClockTime = 1 s

Time = 0.0002

Courant Number mean: 0.00201332 max: 0.0540371
DILUPBiCGStab:  Solving for Ux, Initial residual = 0.216464, Final residual = 9.7404e-06, No Iterations 5
DILUPBiCGStab:  Solving for Uy, Initial residual = 0.309939, Final residual = 1.12739e-05, No Iterations 5
DILUPBiCGStab:  Solving for Uz, Initial residual = 0.981314, Final residual = 3.25229e-05, No Iterations 5
linear solve U 4830
nonePCG:  Solving for p, Initial residual = 0.381736, Final residual = 9.1227e-05, No Iterations 769
linear solve p 63656
time step continuity errors : sum local = 2.38611e-09, global = -1.54626e-21, cumulative = -3.80661e-21
nonePCG:  Solving for p, Initial residual = 0.284846, Final residual = 9.62193e-05, No Iterations 764
linear solve p 62584
time step continuity errors : sum local = 2.63688e-09, global = -1.69534e-21, cumulative = -5.50195e-21
ExecutionTime = 0.75 s  ClockTime = 1 s

Time = 0.0003

Courant Number mean: 0.00317979 max: 0.0721773
DILUPBiCGStab:  Solving for Ux, Initial residual = 0.0963257, Final residual = 4.43625e-06, No Iterations 5
DILUPBiCGStab:  Solving for Uy, Initial residual = 0.140691, Final residual = 3.70417e-06, No Iterations 5
DILUPBiCGStab:  Solving for Uz, Initial residual = 0.205756, Final residual = 8.90668e-06, No Iterations 5
linear solve U 4672
nonePCG:  Solving for p, Initial residual = 0.128595, Final residual = 9.75089e-05, No Iterations 743
linear solve p 61639
time step continuity errors : sum local = 2.29771e-09, global = -1.91071e-21, cumulative = -7.41265e-21
nonePCG:  Solving for p, Initial residual = 0.0996344, Final residual = 9.42503e-05, No Iterations 737
linear solve p 62714
time step continuity errors : sum local = 2.24978e-09, global = -1.48212e-21, cumulative = -8.89477e-21
ExecutionTime = 0.89 s  ClockTime = 1 s

Time = 0.0004

Courant Number mean: 0.00397984 max: 0.0793325
DILUPBiCGStab:  Solving for Ux, Initial residual = 0.0593652, Final residual = 2.21395e-06, No Iterations 5
DILUPBiCGStab:  Solving for Uy, Initial residual = 0.0868081, Final residual = 1.83575e-06, No Iterations 5
DILUPBiCGStab:  Solving for Uz, Initial residual = 0.127135, Final residual = 4.48196e-06, No Iterations 5
linear solve U 5315
nonePCG:  Solving for p, Initial residual = 0.0643102, Final residual = 9.70229e-05, No Iterations 729
linear solve p 60744
time step continuity errors : sum local = 2.24948e-09, global = -2.1757e-21, cumulative = -1.10705e-20
nonePCG:  Solving for p, Initial residual = 0.0497465, Final residual = 9.77615e-05, No Iterations 720
linear solve p 60623
time step continuity errors : sum local = 2.30181e-09, global = -2.204e-21, cumulative = -1.32745e-20
ExecutionTime = 1.02 s  ClockTime = 1 s

Time = 0.0005

Courant Number mean: 0.00460129 max: 0.082885
DILUPBiCGStab:  Solving for Ux, Initial residual = 0.04286, Final residual = 1.56699e-06, No Iterations 5
DILUPBiCGStab:  Solving for Uy, Initial residual = 0.0618645, Final residual = 1.19075e-06, No Iterations 5
DILUPBiCGStab:  Solving for Uz, Initial residual = 0.0971825, Final residual = 3.07966e-06, No Iterations 5
linear solve U 5034
nonePCG:  Solving for p, Initial residual = 0.0389632, Final residual = 9.89487e-05, No Iterations 402
linear solve p 34592
time step continuity errors : sum local = 2.66437e-09, global = -3.51974e-21, cumulative = -1.67942e-20
nonePCG:  Solving for p, Initial residual = 0.0305958, Final residual = 9.85412e-05, No Iterations 339
linear solve p 28978
time step continuity errors : sum local = 2.46343e-09, global = -1.57421e-21, cumulative = -1.83684e-20
ExecutionTime = 1.1 s  ClockTime = 2 s

Time = 0.0006

Courant Number mean: 0.00511864 max: 0.0850107
DILUPBiCGStab:  Solving for Ux, Initial residual = 0.0336702, Final residual = 1.17458e-06, No Iterations 5
DILUPBiCGStab:  Solving for Uy, Initial residual = 0.0480488, Final residual = 8.97325e-07, No Iterations 5
DILUPBiCGStab:  Solving for Uz, Initial residual = 0.0802868, Final residual = 2.21435e-06, No Iterations 5
linear solve U 5115
nonePCG:  Solving for p, Initial residual = 0.0269366, Final residual = 9.75351e-05, No Iterations 341
linear solve p 28957
time step continuity errors : sum local = 2.54773e-09, global = -3.37175e-21, cumulative = -2.17402e-20
nonePCG:  Solving for p, Initial residual = 0.0213774, Final residual = 9.98132e-05, No Iterations 311
linear solve p 26593
time step continuity errors : sum local = 2.52671e-09, global = -2.27667e-21, cumulative = -2.40168e-20
ExecutionTime = 1.16 s  ClockTime = 2 s

Time = 0.0007

Courant Number mean: 0.00556498 max: 0.0864549
DILUPBiCGStab:  Solving for Ux, Initial residual = 0.0277667, Final residual = 9.07622e-07, No Iterations 5
DILUPBiCGStab:  Solving for Uy, Initial residual = 0.0392371, Final residual = 7.31288e-07, No Iterations 5
DILUPBiCGStab:  Solving for Uz, Initial residual = 0.0677668, Final residual = 1.64622e-06, No Iterations 5
linear solve U 5153
nonePCG:  Solving for p, Initial residual = 0.0207775, Final residual = 9.70202e-05, No Iterations 301
linear solve p 26595
time step continuity errors : sum local = 2.59158e-09, global = -3.05686e-21, cumulative = -2.70737e-20
nonePCG:  Solving for p, Initial residual = 0.0165142, Final residual = 9.75669e-05, No Iterations 293
linear solve p 25166
time step continuity errors : sum local = 2.52357e-09, global = -2.66284e-21, cumulative = -2.97365e-20
ExecutionTime = 1.22 s  ClockTime = 2 s

Time = 0.0008

Courant Number mean: 0.0059623 max: 0.0875193
DILUPBiCGStab:  Solving for Ux, Initial residual = 0.0236244, Final residual = 7.31301e-07, No Iterations 5
DILUPBiCGStab:  Solving for Uy, Initial residual = 0.0331352, Final residual = 6.21209e-07, No Iterations 5
DILUPBiCGStab:  Solving for Uz, Initial residual = 0.0588907, Final residual = 1.30752e-06, No Iterations 5
linear solve U 5407
nonePCG:  Solving for p, Initial residual = 0.0167035, Final residual = 9.76222e-05, No Iterations 294
linear solve p 25491
time step continuity errors : sum local = 2.61688e-09, global = -3.79715e-21, cumulative = -3.35337e-20
nonePCG:  Solving for p, Initial residual = 0.0134069, Final residual = 9.91439e-05, No Iterations 287
linear solve p 24302
time step continuity errors : sum local = 2.59569e-09, global = -3.39237e-21, cumulative = -3.69261e-20
ExecutionTime = 1.28 s  ClockTime = 2 s

Time = 0.0009

Courant Number mean: 0.00631848 max: 0.0883467
DILUPBiCGStab:  Solving for Ux, Initial residual = 0.0205607, Final residual = 6.07838e-07, No Iterations 5
DILUPBiCGStab:  Solving for Uy, Initial residual = 0.0286494, Final residual = 5.40884e-07, No Iterations 5
DILUPBiCGStab:  Solving for Uz, Initial residual = 0.0520228, Final residual = 1.09306e-06, No Iterations 5
linear solve U 5104
nonePCG:  Solving for p, Initial residual = 0.0139062, Final residual = 9.87998e-05, No Iterations 288
linear solve p 25056
time step continuity errors : sum local = 2.66706e-09, global = -1.81852e-21, cumulative = -3.87446e-20
nonePCG:  Solving for p, Initial residual = 0.0112189, Final residual = 9.80019e-05, No Iterations 283
linear solve p 24567
time step continuity errors : sum local = 2.59837e-09, global = -4.5516e-21, cumulative = -4.32962e-20
ExecutionTime = 1.34 s  ClockTime = 2 s

Time = 0.001

Courant Number mean: 0.00664439 max: 0.0890141
DILUPBiCGStab:  Solving for Ux, Initial residual = 0.0181846, Final residual = 5.1896e-07, No Iterations 5
DILUPBiCGStab:  Solving for Uy, Initial residual = 0.025212, Final residual = 4.78641e-07, No Iterations 5
DILUPBiCGStab:  Solving for Uz, Initial residual = 0.046533, Final residual = 9.46713e-07, No Iterations 5
linear solve U 5411
nonePCG:  Solving for p, Initial residual = 0.0118863, Final residual = 9.91377e-05, No Iterations 285
linear solve p 24040
time step continuity errors : sum local = 2.69134e-09, global = -3.63445e-21, cumulative = -4.69306e-20
nonePCG:  Solving for p, Initial residual = 0.0096275, Final residual = 9.97656e-05, No Iterations 280
linear solve p 23257
time step continuity errors : sum local = 2.66607e-09, global = -4.82011e-21, cumulative = -5.17507e-20
ExecutionTime = 1.4 s  ClockTime = 2 s

Time = 0.0011

Courant Number mean: 0.00694534 max: 0.0895673
DILUPBiCGStab:  Solving for Ux, Initial residual = 0.016298, Final residual = 4.52727e-07, No Iterations 5
DILUPBiCGStab:  Solving for Uy, Initial residual = 0.022493, Final residual = 4.28514e-07, No Iterations 5
DILUPBiCGStab:  Solving for Uz, Initial residual = 0.0420491, Final residual = 8.39093e-07, No Iterations 5
linear solve U 4421
nonePCG:  Solving for p, Initial residual = 0.0102952, Final residual = 9.88294e-05, No Iterations 283
linear solve p 23926
time step continuity errors : sum local = 2.6996e-09, global = -4.11671e-21, cumulative = -5.58674e-20
nonePCG:  Solving for p, Initial residual = 0.00836492, Final residual = 9.5166e-05, No Iterations 278
linear solve p 23234
time step continuity errors : sum local = 2.57528e-09, global = -3.82259e-21, cumulative = -5.969e-20
ExecutionTime = 1.45 s  ClockTime = 2 s

Time = 0.0012

Courant Number mean: 0.0072238 max: 0.0900356
DILUPBiCGStab:  Solving for Ux, Initial residual = 0.014748, Final residual = 4.01998e-07, No Iterations 5
DILUPBiCGStab:  Solving for Uy, Initial residual = 0.0202886, Final residual = 3.87012e-07, No Iterations 5
DILUPBiCGStab:  Solving for Uz, Initial residual = 0.0383214, Final residual = 7.55317e-07, No Iterations 5
linear solve U 4240
nonePCG:  Solving for p, Initial residual = 0.00904957, Final residual = 9.75955e-05, No Iterations 279
linear solve p 24608
time step continuity errors : sum local = 2.68284e-09, global = -3.41413e-21, cumulative = -6.31041e-20
nonePCG:  Solving for p, Initial residual = 0.00738949, Final residual = 9.83185e-05, No Iterations 275
linear solve p 28615
time step continuity errors : sum local = 2.67025e-09, global = -3.3988e-21, cumulative = -6.6503e-20
ExecutionTime = 1.51 s  ClockTime = 2 s

Time = 0.0013

Courant Number mean: 0.00748303 max: 0.0904387
DILUPBiCGStab:  Solving for Ux, Initial residual = 0.0134667, Final residual = 3.62364e-07, No Iterations 5
DILUPBiCGStab:  Solving for Uy, Initial residual = 0.0184654, Final residual = 3.52001e-07, No Iterations 5
DILUPBiCGStab:  Solving for Uz, Initial residual = 0.0351781, Final residual = 6.87749e-07, No Iterations 5
linear solve U 5182
nonePCG:  Solving for p, Initial residual = 0.00809829, Final residual = 9.76443e-05, No Iterations 276
linear solve p 23928
time step continuity errors : sum local = 2.69651e-09, global = -3.55636e-21, cumulative = -7.00593e-20
nonePCG:  Solving for p, Initial residual = 0.00663304, Final residual = 9.97993e-05, No Iterations 271
linear solve p 26591
time step continuity errors : sum local = 2.72265e-09, global = -3.32543e-21, cumulative = -7.33847e-20
ExecutionTime = 1.58 s  ClockTime = 2 s

Time = 0.0014

Courant Number mean: 0.00772784 max: 0.0907903
DILUPBiCGStab:  Solving for Ux, Initial residual = 0.0123792, Final residual = 3.29751e-07, No Iterations 5
DILUPBiCGStab:  Solving for Uy, Initial residual = 0.0169326, Final residual = 3.22084e-07, No Iterations 5
DILUPBiCGStab:  Solving for Uz, Initial residual = 0.0324909, Final residual = 6.3149e-07, No Iterations 5
linear solve U 4647
nonePCG:  Solving for p, Initial residual = 0.0072814, Final residual = 9.8323e-05, No Iterations 274
linear solve p 32710
time step continuity errors : sum local = 2.72439e-09, global = -3.52803e-21, cumulative = -7.69128e-20
nonePCG:  Solving for p, Initial residual = 0.00598096, Final residual = 9.73436e-05, No Iterations 270
linear solve p 30969
time step continuity errors : sum local = 2.67621e-09, global = -3.00054e-21, cumulative = -7.99133e-20
ExecutionTime = 1.65 s  ClockTime = 2 s

Time = 0.0015

Courant Number mean: 0.00795862 max: 0.0911006
DILUPBiCGStab:  Solving for Ux, Initial residual = 0.0114468, Final residual = 3.02146e-07, No Iterations 5
DILUPBiCGStab:  Solving for Uy, Initial residual = 0.015626, Final residual = 2.96267e-07, No Iterations 5
DILUPBiCGStab:  Solving for Uz, Initial residual = 0.0301683, Final residual = 5.83584e-07, No Iterations 5
linear solve U 4761
nonePCG:  Solving for p, Initial residual = 0.00658153, Final residual = 9.86108e-05, No Iterations 271
linear solve p 25617
time step continuity errors : sum local = 2.74093e-09, global = -4.97729e-21, cumulative = -8.48906e-20
nonePCG:  Solving for p, Initial residual = 0.0054273, Final residual = 9.84054e-05, No Iterations 266
linear solve p 26298
time step continuity errors : sum local = 2.7146e-09, global = -4.1097e-21, cumulative = -8.90003e-20
ExecutionTime = 1.71 s  ClockTime = 2 s

Time = 0.0016

Courant Number mean: 0.0081765 max: 0.091377
DILUPBiCGStab:  Solving for Ux, Initial residual = 0.0106404, Final residual = 2.7845e-07, No Iterations 5
DILUPBiCGStab:  Solving for Uy, Initial residual = 0.0144992, Final residual = 2.7383e-07, No Iterations 5
DILUPBiCGStab:  Solving for Uz, Initial residual = 0.0281421, Final residual = 5.42352e-07, No Iterations 5
linear solve U 4704
nonePCG:  Solving for p, Initial residual = 0.0060316, Final residual = 9.86145e-05, No Iterations 271
linear solve p 25721
time step continuity errors : sum local = 2.75044e-09, global = -3.08807e-21, cumulative = -9.20884e-20
nonePCG:  Solving for p, Initial residual = 0.00496435, Final residual = 9.4919e-05, No Iterations 265
linear solve p 23514
time step continuity errors : sum local = 2.63962e-09, global = -3.08112e-21, cumulative = -9.51695e-20
ExecutionTime = 1.77 s  ClockTime = 2 s

Time = 0.0017

Courant Number mean: 0.0083825 max: 0.0916252
DILUPBiCGStab:  Solving for Ux, Initial residual = 0.00993237, Final residual = 2.58074e-07, No Iterations 5
DILUPBiCGStab:  Solving for Uy, Initial residual = 0.0135174, Final residual = 2.54208e-07, No Iterations 5
DILUPBiCGStab:  Solving for Uz, Initial residual = 0.0263586, Final residual = 5.06122e-07, No Iterations 5
linear solve U 6191
nonePCG:  Solving for p, Initial residual = 0.0054882, Final residual = 9.98827e-05, No Iterations 266
linear solve p 25350
time step continuity errors : sum local = 2.78921e-09, global = -3.44934e-21, cumulative = -9.86188e-20
nonePCG:  Solving for p, Initial residual = 0.00454767, Final residual = 9.66478e-05, No Iterations 263
linear solve p 27080
time step continuity errors : sum local = 2.69175e-09, global = -5.21961e-21, cumulative = -1.03838e-19
ExecutionTime = 1.83 s  ClockTime = 2 s

Time = 0.0018

Courant Number mean: 0.00857956 max: 0.0918497
DILUPBiCGStab:  Solving for Ux, Initial residual = 0.00931096, Final residual = 2.40556e-07, No Iterations 5
DILUPBiCGStab:  Solving for Uy, Initial residual = 0.0126546, Final residual = 2.36957e-07, No Iterations 5
DILUPBiCGStab:  Solving for Uz, Initial residual = 0.0247777, Final residual = 4.74152e-07, No Iterations 5
linear solve U 5596
nonePCG:  Solving for p, Initial residual = 0.00513472, Final residual = 9.94582e-05, No Iterations 264
linear solve p 25637
time step continuity errors : sum local = 2.78665e-09, global = -4.6947e-21, cumulative = -1.08533e-19
nonePCG:  Solving for p, Initial residual = 0.00426316, Final residual = 9.05284e-05, No Iterations 262
linear solve p 23949
time step continuity errors : sum local = 2.54927e-09, global = -5.38335e-21, cumulative = -1.13917e-19
ExecutionTime = 1.89 s  ClockTime = 2 s

Time = 0.0019

Courant Number mean: 0.00876814 max: 0.092054
DILUPBiCGStab:  Solving for Ux, Initial residual = 0.0087581, Final residual = 2.25201e-07, No Iterations 5
DILUPBiCGStab:  Solving for Uy, Initial residual = 0.0118903, Final residual = 2.21717e-07, No Iterations 5
DILUPBiCGStab:  Solving for Uz, Initial residual = 0.0233664, Final residual = 4.45664e-07, No Iterations 5
linear solve U 4448
nonePCG:  Solving for p, Initial residual = 0.00475336, Final residual = 9.86508e-05, No Iterations 265
linear solve p 22969
time step continuity errors : sum local = 2.77327e-09, global = -6.2983e-21, cumulative = -1.20215e-19
nonePCG:  Solving for p, Initial residual = 0.00394529, Final residual = 9.66722e-05, No Iterations 259
linear solve p 22884
time step continuity errors : sum local = 2.70901e-09, global = -4.36137e-21, cumulative = -1.24576e-19
ExecutionTime = 1.95 s  ClockTime = 2 s

Time = 0.002

Courant Number mean: 0.0089485 max: 0.0922409
DILUPBiCGStab:  Solving for Ux, Initial residual = 0.00826098, Final residual = 2.11553e-07, No Iterations 5
DILUPBiCGStab:  Solving for Uy, Initial residual = 0.0112087, Final residual = 2.08191e-07, No Iterations 5
DILUPBiCGStab:  Solving for Uz, Initial residual = 0.0220996, Final residual = 4.20131e-07, No Iterations 5
linear solve U 4735
nonePCG:  Solving for p, Initial residual = 0.00439808, Final residual = 9.87996e-05, No Iterations 263
linear solve p 23008
time step continuity errors : sum local = 2.78293e-09, global = -5.39142e-21, cumulative = -1.29968e-19
nonePCG:  Solving for p, Initial residual = 0.00365363, Final residual = 9.75584e-05, No Iterations 255
linear solve p 21834
time step continuity errors : sum local = 2.73801e-09, global = -4.81816e-21, cumulative = -1.34786e-19
ExecutionTime = 2 s  ClockTime = 2 s

End

Finalising parallel run
================================================================================
