hash: 36640ea0c84bde8bb2f5a3f36786b45f
/*---------------------------------------------------------------------------*\
| =========                 |                                                 |
| \\      /  F ield         | OpenFOAM: The Open Source CFD Toolbox           |
|  \\    /   O peration     | Version:  2112                                  |
|   \\  /    A nd           | Website:  www.openfoam.com                      |
|    \\/     M anipulation  |                                                 |
\*---------------------------------------------------------------------------*/
Build  : d44c8318f0-20220111 OPENFOAM=2112 version=v2112
Arch   : "LSB;label=32;scalar=64"
Exec   : icoFoam -parallel
Date   : Jun 26 2022
Time   : 14:00:28
Host   : hkn0426.localdomain
PID    : 1390992
I/O    : uncollated
Case   : /hkfs/work/workspace/scratch/eq4036-lidDrivenCavity/simple/mesh/500/matrix_solver/CG_NoPrecond_CUDA/mpiRank_gko/3/base
nProcs : 3
Hosts  :
(
    (hkn0426.localdomain 3)
)
Pstream initialized with:
    floatTransfer      : 0
    nProcsSimpleSum    : 0
    commsType          : nonBlocking
    polling iterations : 0
trapFpe: Floating point exception trapping enabled (FOAM_SIGFPE).
fileModificationChecking : Monitoring run-time modified files using timeStampMaster (fileModificationSkew 5, maxFileModificationPolls 20)
allowSystemOperations : Allowing user-supplied system call operations

// * * * * * * * * * * * * * * * * * * * * * * * * * * * * * * * * * * * * * //
Create time

Create mesh for time = 0


PISO: Operating solver in PISO mode

Reading transportProperties

Reading field p

Reading field U

Reading/calculating face flux field phi


Starting time loop

Time = 2e-05

Courant Number mean: 0 max: 0
DILUPBiCGStab:  Solving for Ux, Initial residual = 1, Final residual = 0.0023623, No Iterations 5
DILUPBiCGStab:  Solving for Uy:  solution singularity
DILUPBiCGStab:  Solving for Uz:  solution singularity
linear solve U 28592550
[OGL LOG][Proc: 0]global_index_init: 19.063 [ms]
[OGL LOG][Proc: 0]global_index_init: 0.001 [ms]
================================================================================
hash: e3bf1b59220efbe2f29db16b58e474c0
/*---------------------------------------------------------------------------*\
| =========                 |                                                 |
| \\      /  F ield         | OpenFOAM: The Open Source CFD Toolbox           |
|  \\    /   O peration     | Version:  2112                                  |
|   \\  /    A nd           | Website:  www.openfoam.com                      |
|    \\/     M anipulation  |                                                 |
\*---------------------------------------------------------------------------*/
Build  : d44c8318f0-20220111 OPENFOAM=2112 version=v2112
Arch   : "LSB;label=32;scalar=64"
Exec   : icoFoam -parallel
Date   : Jun 26 2022
Time   : 14:00:28
Host   : hkn0427.localdomain
PID    : 2059655
I/O    : uncollated
Case   : /hkfs/work/workspace/scratch/eq4036-lidDrivenCavity/simple/mesh/500/matrix_solver/CG_NoPrecond_CUDA/mpiRank_gko/2/base
nProcs : 2
Hosts  :
(
    (hkn0427.localdomain 2)
)
Pstream initialized with:
    floatTransfer      : 0
    nProcsSimpleSum    : 0
    commsType          : nonBlocking
    polling iterations : 0
trapFpe: Floating point exception trapping enabled (FOAM_SIGFPE).
fileModificationChecking : Monitoring run-time modified files using timeStampMaster (fileModificationSkew 5, maxFileModificationPolls 20)
allowSystemOperations : Allowing user-supplied system call operations

// * * * * * * * * * * * * * * * * * * * * * * * * * * * * * * * * * * * * * //
Create time

Create mesh for time = 0


PISO: Operating solver in PISO mode

Reading transportProperties

Reading field p

Reading field U

Reading/calculating face flux field phi


Starting time loop

Time = 2e-05

Courant Number mean: 0 max: 0
DILUPBiCGStab:  Solving for Ux, Initial residual = 1, Final residual = 0.00221092, No Iterations 5
DILUPBiCGStab:  Solving for Uy:  solution singularity
DILUPBiCGStab:  Solving for Uz:  solution singularity
linear solve U 40749867
[OGL LOG][Proc: 0]global_index_init: 9.235 [ms]
[OGL LOG][Proc: 0]global_index_init: 0.001 [ms]
================================================================================
hash: 81a4af9a71551fdb999dab24826cad88
/*---------------------------------------------------------------------------*\
| =========                 |                                                 |
| \\      /  F ield         | OpenFOAM: The Open Source CFD Toolbox           |
|  \\    /   O peration     | Version:  2112                                  |
|   \\  /    A nd           | Website:  www.openfoam.com                      |
|    \\/     M anipulation  |                                                 |
\*---------------------------------------------------------------------------*/
Build  : d44c8318f0-20220111 OPENFOAM=2112 version=v2112
Arch   : "LSB;label=32;scalar=64"
Exec   : icoFoam -parallel
Date   : Jun 26 2022
Time   : 14:00:28
Host   : hkn0604.localdomain
PID    : 4055509
I/O    : uncollated
Case   : /hkfs/work/workspace/scratch/eq4036-lidDrivenCavity/simple/mesh/500/matrix_solver/CG_NoPrecond_CUDA/mpiRank_gko/4/base
nProcs : 4
Hosts  :
(
    (hkn0604.localdomain 4)
)
Pstream initialized with:
    floatTransfer      : 0
    nProcsSimpleSum    : 0
    commsType          : nonBlocking
    polling iterations : 0
trapFpe: Floating point exception trapping enabled (FOAM_SIGFPE).
fileModificationChecking : Monitoring run-time modified files using timeStampMaster (fileModificationSkew 5, maxFileModificationPolls 20)
allowSystemOperations : Allowing user-supplied system call operations

// * * * * * * * * * * * * * * * * * * * * * * * * * * * * * * * * * * * * * //
Create time

Create mesh for time = 0


PISO: Operating solver in PISO mode

Reading transportProperties

Reading field p

Reading field U

Reading/calculating face flux field phi


Starting time loop

Time = 2e-05

Courant Number mean: 0 max: 0
DILUPBiCGStab:  Solving for Ux, Initial residual = 1, Final residual = 0.00221092, No Iterations 5
DILUPBiCGStab:  Solving for Uy:  solution singularity
DILUPBiCGStab:  Solving for Uz:  solution singularity
linear solve U 21602798
[OGL LOG][Proc: 0]global_index_init: 5.213 [ms]
[OGL LOG][Proc: 0]global_index_init: 0.001 [ms]
[OGL LOG][Proc: 0]init_host_sparsity_pattern: 3.62672e+06 [ms]
[OGL LOG][Proc: 0]update_host_matrix_data: 789.55 [ms]
[OGL LOG][Proc: 0]convert_coo_to_csr: 3303.2 [ms]
[OGL LOG][lduLduBase.H:153] Initialising OGL
	Version:  484b851
	branch: HEAD 
	Ginkgo version: 1.5.0(develop)
	MPI is GPU aware: 1)
	Forces host buffer based communication: 0
[OGL LOG][Proc: 0]gather_global_matrix: 0.005 [ms]
[OGL LOG][Proc: 0]generate_distributed_matrix: 433.696 [ms]
[OGL LOG][Proc: 0]init_precond: 0.068 [ms]
[OGL LOG][Proc: 0]generate_solver: 0.014 [ms]
[OGL LOG][Proc: 0]solve: 32146.9 [ms]
[OGL LOG][Proc: 0]copy_x_back: 122.466 [ms]
[OGL LOG][lduLduBase.H:380] 
Statistics:
	Time per iteration: 7821 [mu s]
	Time per iteration and DOF: 0.062568 [ns]
	Retrieve results bandwith 2.041000 [GByte/s]
nonecudaGKOCG:  Solving for p, Initial residual = 1, Final residual = 9.99768e-05, No Iterations 4110
linear solve p -628610756
time step continuity errors : sum local = 1.73245e-10, global = 1.66795e-22, cumulative = 1.66795e-22
[OGL LOG][Proc: 0]global_index_init: 0.037 [ms]
[OGL LOG][Proc: 0]global_index_init: 0.002 [ms]
[OGL LOG][Proc: 0]update_host_matrix_data: 844.375 [ms]
[OGL LOG][Proc: 0]gather_global_matrix: 0 [ms]
[OGL LOG][Proc: 0]generate_distributed_matrix: 431.326 [ms]
[OGL LOG][Proc: 0]init_precond: 0.047 [ms]
[OGL LOG][Proc: 0]generate_solver: 0.002 [ms]
[OGL LOG][Proc: 0]solve: 31248.3 [ms]
[OGL LOG][Proc: 0]copy_x_back: 122.495 [ms]
[OGL LOG][lduLduBase.H:380] 
Statistics:
	Time per iteration: 7619 [mu s]
	Time per iteration and DOF: 0.060952 [ns]
	Retrieve results bandwith 2.040000 [GByte/s]
nonecudaGKOCG:  Solving for p, Initial residual = 0.736007, Final residual = 7.71023e-05, No Iterations 4101
linear solve p 32935286
time step continuity errors : sum local = 1.76725e-10, global = 2.34657e-23, cumulative = 1.90261e-22
ExecutionTime = 3852.09 s  ClockTime = 3858 s

Time = 4e-05

Courant Number mean: 0.00105578 max: 0.0776342
DILUPBiCGStab:  Solving for Ux, Initial residual = 0.150267, Final residual = 0.00132891, No Iterations 5
DILUPBiCGStab:  Solving for Uy, Initial residual = 0.356029, Final residual = 0.00130322, No Iterations 5
DILUPBiCGStab:  Solving for Uz, Initial residual = 0.997766, Final residual = 0.00574316, No Iterations 5
linear solve U 43493462
[OGL LOG][Proc: 0]global_index_init: 0.006 [ms]
[OGL LOG][Proc: 0]global_index_init: 0.003 [ms]
[OGL LOG][Proc: 0]update_host_matrix_data: 844.909 [ms]
[OGL LOG][Proc: 0]gather_global_matrix: 0 [ms]
[OGL LOG][Proc: 0]generate_distributed_matrix: 418.581 [ms]
[OGL LOG][Proc: 0]init_precond: 0.039 [ms]
[OGL LOG][Proc: 0]generate_solver: 0.002 [ms]
[OGL LOG][Proc: 0]solve: 31288.3 [ms]
[OGL LOG][Proc: 0]copy_x_back: 122.408 [ms]
[OGL LOG][lduLduBase.H:380] 
Statistics:
	Time per iteration: 7629 [mu s]
	Time per iteration and DOF: 0.061032 [ns]
	Retrieve results bandwith 2.042000 [GByte/s]
nonecudaGKOCG:  Solving for p, Initial residual = 0.700849, Final residual = 4.41181e-05, No Iterations 4101
linear solve p 32970401
time step continuity errors : sum local = 1.16632e-10, global = -2.49342e-23, cumulative = 1.65327e-22
[OGL LOG][Proc: 0]global_index_init: 0.007 [ms]
[OGL LOG][Proc: 0]global_index_init: 0.001 [ms]
[OGL LOG][Proc: 0]update_host_matrix_data: 846.349 [ms]
[OGL LOG][Proc: 0]gather_global_matrix: 0 [ms]
[OGL LOG][Proc: 0]generate_distributed_matrix: 417.42 [ms]
[OGL LOG][Proc: 0]init_precond: 0.038 [ms]
[OGL LOG][Proc: 0]generate_solver: 0.002 [ms]
[OGL LOG][Proc: 0]solve: 31158.1 [ms]
[OGL LOG][Proc: 0]copy_x_back: 122.944 [ms]
[OGL LOG][lduLduBase.H:380] 
Statistics:
	Time per iteration: 7597 [mu s]
	Time per iteration and DOF: 0.060776 [ns]
	Retrieve results bandwith 2.033000 [GByte/s]
nonecudaGKOCG:  Solving for p, Initial residual = 0.633716, Final residual = 4.04022e-05, No Iterations 4101
linear solve p 32863170
time step continuity errors : sum local = 1.08444e-10, global = -1.21141e-23, cumulative = 1.53213e-22
ExecutionTime = 3991.66 s  ClockTime = 3998 s

Time = 6e-05

Courant Number mean: 0.00160706 max: 0.0884744
DILUPBiCGStab:  Solving for Ux, Initial residual = 0.0623704, Final residual = 0.000361956, No Iterations 5
DILUPBiCGStab:  Solving for Uy, Initial residual = 0.140295, Final residual = 0.000268613, No Iterations 5
DILUPBiCGStab:  Solving for Uz, Initial residual = 0.660857, Final residual = 0.00415346, No Iterations 5
linear solve U 43507161
[OGL LOG][Proc: 0]global_index_init: 0.007 [ms]
[OGL LOG][Proc: 0]global_index_init: 0.003 [ms]
[OGL LOG][Proc: 0]update_host_matrix_data: 846.923 [ms]
[OGL LOG][Proc: 0]gather_global_matrix: 0 [ms]
[OGL LOG][Proc: 0]generate_distributed_matrix: 419.3 [ms]
[OGL LOG][Proc: 0]init_precond: 0.036 [ms]
[OGL LOG][Proc: 0]generate_solver: 0.002 [ms]
[OGL LOG][Proc: 0]solve: 30026.6 [ms]
[OGL LOG][Proc: 0]copy_x_back: 122.087 [ms]
[OGL LOG][lduLduBase.H:380] 
Statistics:
	Time per iteration: 7626 [mu s]
	Time per iteration and DOF: 0.061008 [ns]
	Retrieve results bandwith 2.047000 [GByte/s]
nonecudaGKOCG:  Solving for p, Initial residual = 0.651643, Final residual = 7.80265e-05, No Iterations 3937
linear solve p 31702884
time step continuity errors : sum local = 1.52039e-10, global = -8.73619e-24, cumulative = 1.44477e-22
[OGL LOG][Proc: 0]global_index_init: 0.007 [ms]
[OGL LOG][Proc: 0]global_index_init: 0.002 [ms]
[OGL LOG][Proc: 0]update_host_matrix_data: 846.25 [ms]
[OGL LOG][Proc: 0]gather_global_matrix: 0 [ms]
[OGL LOG][Proc: 0]generate_distributed_matrix: 414.715 [ms]
[OGL LOG][Proc: 0]init_precond: 0.047 [ms]
[OGL LOG][Proc: 0]generate_solver: 0.002 [ms]
[OGL LOG][Proc: 0]solve: 29934.1 [ms]
[OGL LOG][Proc: 0]copy_x_back: 122.399 [ms]
[OGL LOG][lduLduBase.H:380] 
Statistics:
	Time per iteration: 7624 [mu s]
	Time per iteration and DOF: 0.060992 [ns]
	Retrieve results bandwith 2.042000 [GByte/s]
nonecudaGKOCG:  Solving for p, Initial residual = 0.598958, Final residual = 7.7826e-05, No Iterations 3926
linear solve p 31604622
time step continuity errors : sum local = 1.48348e-10, global = -1.09188e-23, cumulative = 1.33558e-22
ExecutionTime = 4128.78 s  ClockTime = 4136 s

Time = 8e-05

Courant Number mean: 0.00199289 max: 0.0913809
DILUPBiCGStab:  Solving for Ux, Initial residual = 0.0414952, Final residual = 0.000170925, No Iterations 5
DILUPBiCGStab:  Solving for Uy, Initial residual = 0.0887196, Final residual = 0.000153702, No Iterations 5
DILUPBiCGStab:  Solving for Uz, Initial residual = 0.161489, Final residual = 0.000703138, No Iterations 5
linear solve U 43490147
[OGL LOG][Proc: 0]global_index_init: 0.006 [ms]
[OGL LOG][Proc: 0]global_index_init: 0.001 [ms]
[OGL LOG][Proc: 0]update_host_matrix_data: 845.963 [ms]
[OGL LOG][Proc: 0]gather_global_matrix: 0 [ms]
[OGL LOG][Proc: 0]generate_distributed_matrix: 415.171 [ms]
[OGL LOG][Proc: 0]init_precond: 0.039 [ms]
[OGL LOG][Proc: 0]generate_solver: 0.002 [ms]
[OGL LOG][Proc: 0]solve: 29952.5 [ms]
[OGL LOG][Proc: 0]copy_x_back: 122.119 [ms]
[OGL LOG][lduLduBase.H:380] 
Statistics:
	Time per iteration: 7629 [mu s]
	Time per iteration and DOF: 0.061032 [ns]
	Retrieve results bandwith 2.047000 [GByte/s]
nonecudaGKOCG:  Solving for p, Initial residual = 0.425514, Final residual = 3.77664e-05, No Iterations 3926
linear solve p 31623537
time step continuity errors : sum local = 6.08325e-11, global = 2.7904e-23, cumulative = 1.61462e-22
[OGL LOG][Proc: 0]global_index_init: 0.005 [ms]
[OGL LOG][Proc: 0]global_index_init: 0.002 [ms]
[OGL LOG][Proc: 0]update_host_matrix_data: 844.674 [ms]
[OGL LOG][Proc: 0]gather_global_matrix: 0 [ms]
[OGL LOG][Proc: 0]generate_distributed_matrix: 415.648 [ms]
[OGL LOG][Proc: 0]init_precond: 0.044 [ms]
[OGL LOG][Proc: 0]generate_solver: 0.002 [ms]
[OGL LOG][Proc: 0]solve: 29930 [ms]
[OGL LOG][Proc: 0]copy_x_back: 122.103 [ms]
[OGL LOG][lduLduBase.H:380] 
Statistics:
	Time per iteration: 7623 [mu s]
	Time per iteration and DOF: 0.060984 [ns]
	Retrieve results bandwith 2.047000 [GByte/s]
nonecudaGKOCG:  Solving for p, Initial residual = 0.363418, Final residual = 3.4183e-05, No Iterations 3926
linear solve p 31600092
time step continuity errors : sum local = 5.54576e-11, global = 4.74432e-23, cumulative = 2.08905e-22
ExecutionTime = 4265.52 s  ClockTime = 4273 s

Time = 0.0001

Courant Number mean: 0.00230673 max: 0.092787
DILUPBiCGStab:  Solving for Ux, Initial residual = 0.0318138, Final residual = 9.03272e-05, No Iterations 5
DILUPBiCGStab:  Solving for Uy, Initial residual = 0.0636213, Final residual = 8.49863e-05, No Iterations 5
DILUPBiCGStab:  Solving for Uz, Initial residual = 0.0896955, Final residual = 0.000331875, No Iterations 5
linear solve U 43315993
[OGL LOG][Proc: 0]global_index_init: 0.007 [ms]
[OGL LOG][Proc: 0]global_index_init: 0.001 [ms]
[OGL LOG][Proc: 0]update_host_matrix_data: 850.281 [ms]
[OGL LOG][Proc: 0]gather_global_matrix: 0 [ms]
[OGL LOG][Proc: 0]generate_distributed_matrix: 412.137 [ms]
[OGL LOG][Proc: 0]init_precond: 0.048 [ms]
[OGL LOG][Proc: 0]generate_solver: 0.002 [ms]
[OGL LOG][Proc: 0]solve: 28886 [ms]
[OGL LOG][Proc: 0]copy_x_back: 122.424 [ms]
[OGL LOG][lduLduBase.H:380] 
Statistics:
	Time per iteration: 7664 [mu s]
	Time per iteration and DOF: 0.061312 [ns]
	Retrieve results bandwith 2.042000 [GByte/s]
nonecudaGKOCG:  Solving for p, Initial residual = 0.328671, Final residual = 9.8717e-05, No Iterations 3769
linear solve p 30560945
time step continuity errors : sum local = 1.31954e-10, global = -3.54714e-23, cumulative = 1.73434e-22
[OGL LOG][Proc: 0]global_index_init: 0.005 [ms]
[OGL LOG][Proc: 0]global_index_init: 0.001 [ms]
[OGL LOG][Proc: 0]update_host_matrix_data: 846.325 [ms]
[OGL LOG][Proc: 0]gather_global_matrix: 0 [ms]
[OGL LOG][Proc: 0]generate_distributed_matrix: 410.754 [ms]
[OGL LOG][Proc: 0]init_precond: 0.036 [ms]
[OGL LOG][Proc: 0]generate_solver: 0.002 [ms]
[OGL LOG][Proc: 0]solve: 29747.6 [ms]
[OGL LOG][Proc: 0]copy_x_back: 122.354 [ms]
[OGL LOG][lduLduBase.H:380] 
Statistics:
	Time per iteration: 7625 [mu s]
	Time per iteration and DOF: 0.061000 [ns]
	Retrieve results bandwith 2.043000 [GByte/s]
nonecudaGKOCG:  Solving for p, Initial residual = 0.282174, Final residual = 3.81684e-05, No Iterations 3901
linear solve p 31385228
time step continuity errors : sum local = 5.07155e-11, global = -2.93193e-23, cumulative = 1.44114e-22
ExecutionTime = 4400.9 s  ClockTime = 4408 s

Time = 0.00012

Courant Number mean: 0.00257532 max: 0.0936647
DILUPBiCGStab:  Solving for Ux, Initial residual = 0.0259269, Final residual = 6.65458e-05, No Iterations 5
DILUPBiCGStab:  Solving for Uy, Initial residual = 0.050046, Final residual = 4.60581e-05, No Iterations 5
DILUPBiCGStab:  Solving for Uz, Initial residual = 0.0789103, Final residual = 0.00030842, No Iterations 5
linear solve U 43164012
[OGL LOG][Proc: 0]global_index_init: 0.006 [ms]
[OGL LOG][Proc: 0]global_index_init: 0.002 [ms]
[OGL LOG][Proc: 0]update_host_matrix_data: 846.144 [ms]
[OGL LOG][Proc: 0]gather_global_matrix: 0 [ms]
[OGL LOG][Proc: 0]generate_distributed_matrix: 421.408 [ms]
[OGL LOG][Proc: 0]init_precond: 0.029 [ms]
[OGL LOG][Proc: 0]generate_solver: 0.001 [ms]
[OGL LOG][Proc: 0]solve: 29749.4 [ms]
[OGL LOG][Proc: 0]copy_x_back: 124.735 [ms]
[OGL LOG][lduLduBase.H:380] 
Statistics:
	Time per iteration: 7626 [mu s]
	Time per iteration and DOF: 0.061008 [ns]
	Retrieve results bandwith 2.004000 [GByte/s]
nonecudaGKOCG:  Solving for p, Initial residual = 0.208202, Final residual = 3.55152e-05, No Iterations 3901
linear solve p 31456265
time step continuity errors : sum local = 4.52744e-11, global = -4.5305e-23, cumulative = 9.88093e-23
[OGL LOG][Proc: 0]global_index_init: 0.006 [ms]
[OGL LOG][Proc: 0]global_index_init: 0.002 [ms]
[OGL LOG][Proc: 0]update_host_matrix_data: 846.134 [ms]
[OGL LOG][Proc: 0]gather_global_matrix: 0 [ms]
[OGL LOG][Proc: 0]generate_distributed_matrix: 399.821 [ms]
[OGL LOG][Proc: 0]init_precond: 0.039 [ms]
[OGL LOG][Proc: 0]generate_solver: 0.002 [ms]
[OGL LOG][Proc: 0]solve: 29726.6 [ms]
[OGL LOG][Proc: 0]copy_x_back: 122.854 [ms]
[OGL LOG][lduLduBase.H:380] 
Statistics:
	Time per iteration: 7620 [mu s]
	Time per iteration and DOF: 0.060960 [ns]
	Retrieve results bandwith 2.034000 [GByte/s]
nonecudaGKOCG:  Solving for p, Initial residual = 0.174018, Final residual = 3.31259e-05, No Iterations 3901
linear solve p 31410040
time step continuity errors : sum local = 4.2212e-11, global = 6.79049e-24, cumulative = 1.056e-22
ExecutionTime = 4537.4 s  ClockTime = 4545 s

Time = 0.00014

Courant Number mean: 0.00281282 max: 0.0942765
DILUPBiCGStab:  Solving for Ux, Initial residual = 0.0220102, Final residual = 4.61755e-05, No Iterations 5
DILUPBiCGStab:  Solving for Uy, Initial residual = 0.0411066, Final residual = 3.51435e-05, No Iterations 5
DILUPBiCGStab:  Solving for Uz, Initial residual = 0.0657648, Final residual = 0.000179225, No Iterations 5
linear solve U 43577925
[OGL LOG][Proc: 0]global_index_init: 0.007 [ms]
[OGL LOG][Proc: 0]global_index_init: 0.002 [ms]
[OGL LOG][Proc: 0]update_host_matrix_data: 849.669 [ms]
[OGL LOG][Proc: 0]gather_global_matrix: 0 [ms]
[OGL LOG][Proc: 0]generate_distributed_matrix: 418.131 [ms]
[OGL LOG][Proc: 0]init_precond: 0.038 [ms]
[OGL LOG][Proc: 0]generate_solver: 0.002 [ms]
[OGL LOG][Proc: 0]solve: 28620.3 [ms]
[OGL LOG][Proc: 0]copy_x_back: 122.795 [ms]
[OGL LOG][lduLduBase.H:380] 
Statistics:
	Time per iteration: 7642 [mu s]
	Time per iteration and DOF: 0.061136 [ns]
	Retrieve results bandwith 2.035000 [GByte/s]
nonecudaGKOCG:  Solving for p, Initial residual = 0.150863, Final residual = 8.79097e-05, No Iterations 3745
linear solve p 30329020
time step continuity errors : sum local = 1.06528e-10, global = -1.85473e-23, cumulative = 8.70524e-23
[OGL LOG][Proc: 0]global_index_init: 0.006 [ms]
[OGL LOG][Proc: 0]global_index_init: 0.002 [ms]
[OGL LOG][Proc: 0]update_host_matrix_data: 847.732 [ms]
[OGL LOG][Proc: 0]gather_global_matrix: 0 [ms]
[OGL LOG][Proc: 0]generate_distributed_matrix: 415.884 [ms]
[OGL LOG][Proc: 0]init_precond: 0.042 [ms]
[OGL LOG][Proc: 0]generate_solver: 0.002 [ms]
[OGL LOG][Proc: 0]solve: 29564.9 [ms]
[OGL LOG][Proc: 0]copy_x_back: 122.349 [ms]
[OGL LOG][lduLduBase.H:380] 
Statistics:
	Time per iteration: 7629 [mu s]
	Time per iteration and DOF: 0.061032 [ns]
	Retrieve results bandwith 2.043000 [GByte/s]
nonecudaGKOCG:  Solving for p, Initial residual = 0.126948, Final residual = 3.70856e-05, No Iterations 3875
linear solve p 31202084
time step continuity errors : sum local = 4.4938e-11, global = 5.97297e-24, cumulative = 9.30254e-23
ExecutionTime = 4672.82 s  ClockTime = 4681 s

Time = 0.00016

Courant Number mean: 0.00302701 max: 0.094736
DILUPBiCGStab:  Solving for Ux, Initial residual = 0.0191757, Final residual = 3.45615e-05, No Iterations 5
DILUPBiCGStab:  Solving for Uy, Initial residual = 0.034916, Final residual = 1.75238e-05, No Iterations 5
DILUPBiCGStab:  Solving for Uz, Initial residual = 0.058396, Final residual = 0.00011743, No Iterations 5
linear solve U 43366983
[OGL LOG][Proc: 0]global_index_init: 0.007 [ms]
[OGL LOG][Proc: 0]global_index_init: 0.002 [ms]
[OGL LOG][Proc: 0]update_host_matrix_data: 846.404 [ms]
[OGL LOG][Proc: 0]gather_global_matrix: 0 [ms]
[OGL LOG][Proc: 0]generate_distributed_matrix: 415.112 [ms]
[OGL LOG][Proc: 0]init_precond: 0.034 [ms]
[OGL LOG][Proc: 0]generate_solver: 0.003 [ms]
[OGL LOG][Proc: 0]solve: 28422.1 [ms]
[OGL LOG][Proc: 0]copy_x_back: 123.854 [ms]
[OGL LOG][lduLduBase.H:380] 
Statistics:
	Time per iteration: 7638 [mu s]
	Time per iteration and DOF: 0.061104 [ns]
	Retrieve results bandwith 2.018000 [GByte/s]
nonecudaGKOCG:  Solving for p, Initial residual = 0.0995874, Final residual = 9.74088e-05, No Iterations 3721
linear solve p 30062309
time step continuity errors : sum local = 1.1517e-10, global = -5.52288e-24, cumulative = 8.75025e-23
[OGL LOG][Proc: 0]global_index_init: 0.007 [ms]
[OGL LOG][Proc: 0]global_index_init: 0.002 [ms]
[OGL LOG][Proc: 0]update_host_matrix_data: 845.889 [ms]
[OGL LOG][Proc: 0]gather_global_matrix: 0 [ms]
[OGL LOG][Proc: 0]generate_distributed_matrix: 420.207 [ms]
[OGL LOG][Proc: 0]init_precond: 0.038 [ms]
[OGL LOG][Proc: 0]generate_solver: 0.002 [ms]
================================================================================
hash: 0d0ba9880d4b0222ef6a2bb2e7c0599f
/*---------------------------------------------------------------------------*\
| =========                 |                                                 |
| \\      /  F ield         | OpenFOAM: The Open Source CFD Toolbox           |
|  \\    /   O peration     | Version:  2112                                  |
|   \\  /    A nd           | Website:  www.openfoam.com                      |
|    \\/     M anipulation  |                                                 |
\*---------------------------------------------------------------------------*/
Build  : d44c8318f0-20220111 OPENFOAM=2112 version=v2112
Arch   : "LSB;label=32;scalar=64"
Exec   : icoFoam -parallel
Date   : Jun 26 2022
Time   : 14:00:25
Host   : hkn0818.localdomain
PID    : 3868752
I/O    : uncollated
Case   : /hkfs/work/workspace/scratch/eq4036-lidDrivenCavity/simple/mesh/400/matrix_solver/CG_NoPrecond_CUDA/mpiRank_gko/3/base
nProcs : 3
Hosts  :
(
    (hkn0818.localdomain 3)
)
Pstream initialized with:
    floatTransfer      : 0
    nProcsSimpleSum    : 0
    commsType          : nonBlocking
    polling iterations : 0
trapFpe: Floating point exception trapping enabled (FOAM_SIGFPE).
fileModificationChecking : Monitoring run-time modified files using timeStampMaster (fileModificationSkew 5, maxFileModificationPolls 20)
allowSystemOperations : Allowing user-supplied system call operations

// * * * * * * * * * * * * * * * * * * * * * * * * * * * * * * * * * * * * * //
Create time

Create mesh for time = 0


PISO: Operating solver in PISO mode

Reading transportProperties

Reading field p

Reading field U

Reading/calculating face flux field phi


Starting time loop

Time = 2.5e-05

Courant Number mean: 0 max: 0
DILUPBiCGStab:  Solving for Ux, Initial residual = 1, Final residual = 0.00129506, No Iterations 5
DILUPBiCGStab:  Solving for Uy:  solution singularity
DILUPBiCGStab:  Solving for Uz:  solution singularity
linear solve U 16713096
[OGL LOG][Proc: 0]global_index_init: 3.898 [ms]
[OGL LOG][Proc: 0]global_index_init: 0.002 [ms]
[OGL LOG][Proc: 0]init_host_sparsity_pattern: 1.58678e+06 [ms]
[OGL LOG][Proc: 0]update_host_matrix_data: 636.596 [ms]
[OGL LOG][Proc: 0]convert_coo_to_csr: 1569.58 [ms]
[OGL LOG][lduLduBase.H:153] Initialising OGL
	Version:  484b851
	branch: HEAD 
	Ginkgo version: 1.5.0(develop)
	MPI is GPU aware: 1)
	Forces host buffer based communication: 0
[OGL LOG][Proc: 0]gather_global_matrix: 0.004 [ms]
[OGL LOG][Proc: 0]generate_distributed_matrix: 268.383 [ms]
[OGL LOG][Proc: 0]init_precond: 0.112 [ms]
[OGL LOG][Proc: 0]generate_solver: 0.031 [ms]
[OGL LOG][Proc: 0]solve: 18415 [ms]
[OGL LOG][Proc: 0]copy_x_back: 82.122 [ms]
[OGL LOG][lduLduBase.H:380] 
Statistics:
	Time per iteration: 5652 [mu s]
	Time per iteration and DOF: 0.088313 [ns]
	Retrieve results bandwith 2.078000 [GByte/s]
nonecudaGKOCG:  Solving for p, Initial residual = 1, Final residual = 9.82255e-05, No Iterations 3258
linear solve p -1129385361
time step continuity errors : sum local = 2.38041e-10, global = 1.20143e-22, cumulative = 1.20143e-22
[OGL LOG][Proc: 0]global_index_init: 0.036 [ms]
[OGL LOG][Proc: 0]global_index_init: 0.001 [ms]
[OGL LOG][Proc: 0]update_host_matrix_data: 550.007 [ms]
[OGL LOG][Proc: 0]gather_global_matrix: 0 [ms]
[OGL LOG][Proc: 0]generate_distributed_matrix: 266.004 [ms]
[OGL LOG][Proc: 0]init_precond: 0.044 [ms]
[OGL LOG][Proc: 0]generate_solver: 0.002 [ms]
[OGL LOG][Proc: 0]solve: 17867.3 [ms]
[OGL LOG][Proc: 0]copy_x_back: 79.85 [ms]
[OGL LOG][lduLduBase.H:380] 
Statistics:
	Time per iteration: 5495 [mu s]
	Time per iteration and DOF: 0.085859 [ns]
	Retrieve results bandwith 2.137000 [GByte/s]
nonecudaGKOCG:  Solving for p, Initial residual = 0.716905, Final residual = 7.744e-05, No Iterations 3251
linear solve p 18967144
time step continuity errors : sum local = 2.52955e-10, global = 4.53066e-23, cumulative = 1.65449e-22
ExecutionTime = 3290.31 s  ClockTime = 3296 s

Time = 5e-05

Courant Number mean: 0.00116753 max: 0.0751121
DILUPBiCGStab:  Solving for Ux, Initial residual = 0.15986, Final residual = 0.000775729, No Iterations 5
DILUPBiCGStab:  Solving for Uy, Initial residual = 0.348651, Final residual = 0.000599026, No Iterations 5
DILUPBiCGStab:  Solving for Uz, Initial residual = 0.996959, Final residual = 0.00295204, No Iterations 5
linear solve U 28748498
[OGL LOG][Proc: 0]global_index_init: 0.007 [ms]
[OGL LOG][Proc: 0]global_index_init: 0.001 [ms]
[OGL LOG][Proc: 0]update_host_matrix_data: 549.038 [ms]
[OGL LOG][Proc: 0]gather_global_matrix: 0 [ms]
[OGL LOG][Proc: 0]generate_distributed_matrix: 265.351 [ms]
[OGL LOG][Proc: 0]init_precond: 0.038 [ms]
[OGL LOG][Proc: 0]generate_solver: 0.002 [ms]
[OGL LOG][Proc: 0]solve: 17838.4 [ms]
[OGL LOG][Proc: 0]copy_x_back: 81.341 [ms]
[OGL LOG][lduLduBase.H:380] 
Statistics:
	Time per iteration: 5487 [mu s]
	Time per iteration and DOF: 0.085734 [ns]
	Retrieve results bandwith 2.098000 [GByte/s]
nonecudaGKOCG:  Solving for p, Initial residual = 0.657376, Final residual = 4.28941e-05, No Iterations 3251
linear solve p 18926913
time step continuity errors : sum local = 1.51706e-10, global = -4.67034e-24, cumulative = 1.60779e-22
[OGL LOG][Proc: 0]global_index_init: 0.006 [ms]
[OGL LOG][Proc: 0]global_index_init: 0.001 [ms]
[OGL LOG][Proc: 0]update_host_matrix_data: 550.112 [ms]
[OGL LOG][Proc: 0]gather_global_matrix: 0 [ms]
[OGL LOG][Proc: 0]generate_distributed_matrix: 263.985 [ms]
[OGL LOG][Proc: 0]init_precond: 0.036 [ms]
[OGL LOG][Proc: 0]generate_solver: 0.002 [ms]
[OGL LOG][Proc: 0]solve: 17842.6 [ms]
[OGL LOG][Proc: 0]copy_x_back: 80.5 [ms]
[OGL LOG][lduLduBase.H:380] 
Statistics:
	Time per iteration: 5488 [mu s]
	Time per iteration and DOF: 0.085750 [ns]
	Retrieve results bandwith 2.120000 [GByte/s]
nonecudaGKOCG:  Solving for p, Initial residual = 0.582874, Final residual = 3.74289e-05, No Iterations 3251
linear solve p 18909358
time step continuity errors : sum local = 1.34664e-10, global = -1.58817e-23, cumulative = 1.44897e-22
ExecutionTime = 3377.31 s  ClockTime = 3383 s

Time = 7.5e-05

Courant Number mean: 0.00178081 max: 0.0870166
DILUPBiCGStab:  Solving for Ux, Initial residual = 0.06615, Final residual = 0.000217012, No Iterations 5
DILUPBiCGStab:  Solving for Uy, Initial residual = 0.138168, Final residual = 0.000178327, No Iterations 5
DILUPBiCGStab:  Solving for Uz, Initial residual = 0.427309, Final residual = 0.00164243, No Iterations 5
linear solve U 28779285
[OGL LOG][Proc: 0]global_index_init: 0.006 [ms]
[OGL LOG][Proc: 0]global_index_init: 0.001 [ms]
[OGL LOG][Proc: 0]update_host_matrix_data: 548.33 [ms]
[OGL LOG][Proc: 0]gather_global_matrix: 0 [ms]
[OGL LOG][Proc: 0]generate_distributed_matrix: 267.45 [ms]
[OGL LOG][Proc: 0]init_precond: 0.038 [ms]
[OGL LOG][Proc: 0]generate_solver: 0.002 [ms]
[OGL LOG][Proc: 0]solve: 17178.5 [ms]
[OGL LOG][Proc: 0]copy_x_back: 80.634 [ms]
[OGL LOG][lduLduBase.H:380] 
Statistics:
	Time per iteration: 5504 [mu s]
	Time per iteration and DOF: 0.086000 [ns]
	Retrieve results bandwith 2.116000 [GByte/s]
nonecudaGKOCG:  Solving for p, Initial residual = 0.558497, Final residual = 9.07004e-05, No Iterations 3121
linear solve p 18290966
time step continuity errors : sum local = 2.30278e-10, global = -2.4039e-23, cumulative = 1.20858e-22
[OGL LOG][Proc: 0]global_index_init: 0.007 [ms]
[OGL LOG][Proc: 0]global_index_init: 0.001 [ms]
[OGL LOG][Proc: 0]update_host_matrix_data: 549.7 [ms]
[OGL LOG][Proc: 0]gather_global_matrix: 0 [ms]
[OGL LOG][Proc: 0]generate_distributed_matrix: 266.412 [ms]
[OGL LOG][Proc: 0]init_precond: 0.036 [ms]
[OGL LOG][Proc: 0]generate_solver: 0.002 [ms]
[OGL LOG][Proc: 0]solve: 17059.2 [ms]
[OGL LOG][Proc: 0]copy_x_back: 81.464 [ms]
[OGL LOG][lduLduBase.H:380] 
Statistics:
	Time per iteration: 5501 [mu s]
	Time per iteration and DOF: 0.085953 [ns]
	Retrieve results bandwith 2.094000 [GByte/s]
nonecudaGKOCG:  Solving for p, Initial residual = 0.50105, Final residual = 9.64041e-05, No Iterations 3101
linear solve p 18129017
time step continuity errors : sum local = 2.39664e-10, global = 3.07114e-24, cumulative = 1.2393e-22
ExecutionTime = 3462.79 s  ClockTime = 3469 s

Time = 0.0001

Courant Number mean: 0.00220806 max: 0.0903134
DILUPBiCGStab:  Solving for Ux, Initial residual = 0.0436961, Final residual = 9.0259e-05, No Iterations 5
DILUPBiCGStab:  Solving for Uy, Initial residual = 0.0871979, Final residual = 7.61641e-05, No Iterations 5
DILUPBiCGStab:  Solving for Uz, Initial residual = 0.132538, Final residual = 0.000341829, No Iterations 5
linear solve U 28737578
[OGL LOG][Proc: 0]global_index_init: 0.01 [ms]
[OGL LOG][Proc: 0]global_index_init: 0.001 [ms]
[OGL LOG][Proc: 0]update_host_matrix_data: 547.895 [ms]
[OGL LOG][Proc: 0]gather_global_matrix: 0 [ms]
[OGL LOG][Proc: 0]generate_distributed_matrix: 265.495 [ms]
[OGL LOG][Proc: 0]init_precond: 0.039 [ms]
[OGL LOG][Proc: 0]generate_solver: 0.002 [ms]
[OGL LOG][Proc: 0]solve: 17070 [ms]
[OGL LOG][Proc: 0]copy_x_back: 80.71 [ms]
[OGL LOG][lduLduBase.H:380] 
Statistics:
	Time per iteration: 5504 [mu s]
	Time per iteration and DOF: 0.086000 [ns]
	Retrieve results bandwith 2.114000 [GByte/s]
nonecudaGKOCG:  Solving for p, Initial residual = 0.32182, Final residual = 6.2069e-05, No Iterations 3101
linear solve p 18161453
time step continuity errors : sum local = 1.3394e-10, global = 3.0225e-23, cumulative = 1.54155e-22
[OGL LOG][Proc: 0]global_index_init: 0.006 [ms]
[OGL LOG][Proc: 0]global_index_init: 0 [ms]
[OGL LOG][Proc: 0]update_host_matrix_data: 549.383 [ms]
[OGL LOG][Proc: 0]gather_global_matrix: 0 [ms]
[OGL LOG][Proc: 0]generate_distributed_matrix: 266.955 [ms]
[OGL LOG][Proc: 0]init_precond: 0.039 [ms]
[OGL LOG][Proc: 0]generate_solver: 0.002 [ms]
[OGL LOG][Proc: 0]solve: 17062.7 [ms]
[OGL LOG][Proc: 0]copy_x_back: 81.48 [ms]
[OGL LOG][lduLduBase.H:380] 
Statistics:
	Time per iteration: 5502 [mu s]
	Time per iteration and DOF: 0.085969 [ns]
	Retrieve results bandwith 2.094000 [GByte/s]
nonecudaGKOCG:  Solving for p, Initial residual = 0.267227, Final residual = 5.7764e-05, No Iterations 3101
linear solve p 18132943
time step continuity errors : sum local = 1.2557e-10, global = 2.32959e-23, cumulative = 1.7745e-22
ExecutionTime = 3548.08 s  ClockTime = 3554 s

Time = 0.000125

Courant Number mean: 0.00255385 max: 0.0919048
DILUPBiCGStab:  Solving for Ux, Initial residual = 0.0332637, Final residual = 5.68781e-05, No Iterations 5
DILUPBiCGStab:  Solving for Uy, Initial residual = 0.0629919, Final residual = 4.62672e-05, No Iterations 5
DILUPBiCGStab:  Solving for Uz, Initial residual = 0.0876208, Final residual = 0.000201197, No Iterations 5
linear solve U 28714356
[OGL LOG][Proc: 0]global_index_init: 0.015 [ms]
[OGL LOG][Proc: 0]global_index_init: 0.001 [ms]
[OGL LOG][Proc: 0]update_host_matrix_data: 547.735 [ms]
[OGL LOG][Proc: 0]gather_global_matrix: 0 [ms]
[OGL LOG][Proc: 0]generate_distributed_matrix: 266.597 [ms]
[OGL LOG][Proc: 0]init_precond: 0.037 [ms]
[OGL LOG][Proc: 0]generate_solver: 0.002 [ms]
[OGL LOG][Proc: 0]solve: 17073.1 [ms]
[OGL LOG][Proc: 0]copy_x_back: 81.086 [ms]
[OGL LOG][lduLduBase.H:380] 
Statistics:
	Time per iteration: 5505 [mu s]
	Time per iteration and DOF: 0.086016 [ns]
	Retrieve results bandwith 2.104000 [GByte/s]
nonecudaGKOCG:  Solving for p, Initial residual = 0.215531, Final residual = 6.02789e-05, No Iterations 3101
linear solve p 18165155
time step continuity errors : sum local = 1.15216e-10, global = 7.14556e-23, cumulative = 2.48906e-22
[OGL LOG][Proc: 0]global_index_init: 0.008 [ms]
[OGL LOG][Proc: 0]global_index_init: 0.001 [ms]
[OGL LOG][Proc: 0]update_host_matrix_data: 547.325 [ms]
[OGL LOG][Proc: 0]gather_global_matrix: 0 [ms]
[OGL LOG][Proc: 0]generate_distributed_matrix: 266.173 [ms]
[OGL LOG][Proc: 0]init_precond: 0.038 [ms]
[OGL LOG][Proc: 0]generate_solver: 0.002 [ms]
[OGL LOG][Proc: 0]solve: 17066.1 [ms]
[OGL LOG][Proc: 0]copy_x_back: 81.768 [ms]
[OGL LOG][lduLduBase.H:380] 
Statistics:
	Time per iteration: 5503 [mu s]
	Time per iteration and DOF: 0.085984 [ns]
	Retrieve results bandwith 2.087000 [GByte/s]
nonecudaGKOCG:  Solving for p, Initial residual = 0.181492, Final residual = 5.65673e-05, No Iterations 3101
linear solve p 18132697
time step continuity errors : sum local = 1.0768e-10, global = -2.7748e-23, cumulative = 2.21158e-22
ExecutionTime = 3633.37 s  ClockTime = 3640 s

Time = 0.00015

Courant Number mean: 0.00284906 max: 0.0928889
DILUPBiCGStab:  Solving for Ux, Initial residual = 0.0270504, Final residual = 3.79137e-05, No Iterations 5
DILUPBiCGStab:  Solving for Uy, Initial residual = 0.0494927, Final residual = 1.79077e-05, No Iterations 5
DILUPBiCGStab:  Solving for Uz, Initial residual = 0.076609, Final residual = 0.000125141, No Iterations 5
linear solve U 28793010
[OGL LOG][Proc: 0]global_index_init: 0.015 [ms]
[OGL LOG][Proc: 0]global_index_init: 0.001 [ms]
[OGL LOG][Proc: 0]update_host_matrix_data: 549.155 [ms]
[OGL LOG][Proc: 0]gather_global_matrix: 0 [ms]
[OGL LOG][Proc: 0]generate_distributed_matrix: 268.346 [ms]
[OGL LOG][Proc: 0]init_precond: 0.038 [ms]
[OGL LOG][Proc: 0]generate_solver: 0.002 [ms]
[OGL LOG][Proc: 0]solve: 17100 [ms]
[OGL LOG][Proc: 0]copy_x_back: 80.896 [ms]
[OGL LOG][lduLduBase.H:380] 
Statistics:
	Time per iteration: 5514 [mu s]
	Time per iteration and DOF: 0.086156 [ns]
	Retrieve results bandwith 2.109000 [GByte/s]
nonecudaGKOCG:  Solving for p, Initial residual = 0.128706, Final residual = 3.00667e-05, No Iterations 3101
linear solve p 18194246
time step continuity errors : sum local = 5.56603e-11, global = 1.17432e-23, cumulative = 2.32901e-22
[OGL LOG][Proc: 0]global_index_init: 0.008 [ms]
[OGL LOG][Proc: 0]global_index_init: 0.001 [ms]
[OGL LOG][Proc: 0]update_host_matrix_data: 549.47 [ms]
[OGL LOG][Proc: 0]gather_global_matrix: 0 [ms]
[OGL LOG][Proc: 0]generate_distributed_matrix: 261.588 [ms]
[OGL LOG][Proc: 0]init_precond: 0.04 [ms]
[OGL LOG][Proc: 0]generate_solver: 0.002 [ms]
[OGL LOG][Proc: 0]solve: 16420.8 [ms]
[OGL LOG][Proc: 0]copy_x_back: 81.621 [ms]
[OGL LOG][lduLduBase.H:380] 
Statistics:
	Time per iteration: 5515 [mu s]
	Time per iteration and DOF: 0.086172 [ns]
	Retrieve results bandwith 2.090000 [GByte/s]
nonecudaGKOCG:  Solving for p, Initial residual = 0.106206, Final residual = 9.40919e-05, No Iterations 2977
linear solve p 17485865
time step continuity errors : sum local = 1.74407e-10, global = 3.78379e-23, cumulative = 2.70739e-22
ExecutionTime = 3718.13 s  ClockTime = 3725 s

Time = 0.000175

Courant Number mean: 0.00310953 max: 0.0935754
DILUPBiCGStab:  Solving for Ux, Initial residual = 0.0228911, Final residual = 2.72204e-05, No Iterations 5
DILUPBiCGStab:  Solving for Uy, Initial residual = 0.0407482, Final residual = 1.69786e-05, No Iterations 5
DILUPBiCGStab:  Solving for Uz, Initial residual = 0.0655162, Final residual = 7.67882e-05, No Iterations 5
linear solve U 28701287
[OGL LOG][Proc: 0]global_index_init: 0.013 [ms]
[OGL LOG][Proc: 0]global_index_init: 0 [ms]
[OGL LOG][Proc: 0]update_host_matrix_data: 550.364 [ms]
[OGL LOG][Proc: 0]gather_global_matrix: 0 [ms]
[OGL LOG][Proc: 0]generate_distributed_matrix: 267.749 [ms]
[OGL LOG][Proc: 0]init_precond: 0.04 [ms]
[OGL LOG][Proc: 0]generate_solver: 0.002 [ms]
[OGL LOG][Proc: 0]solve: 17050.1 [ms]
[OGL LOG][Proc: 0]copy_x_back: 80.668 [ms]
[OGL LOG][lduLduBase.H:380] 
Statistics:
	Time per iteration: 5508 [mu s]
	Time per iteration and DOF: 0.086063 [ns]
	Retrieve results bandwith 2.115000 [GByte/s]
nonecudaGKOCG:  Solving for p, Initial residual = 0.0880956, Final residual = 3.27381e-05, No Iterations 3095
linear solve p 18165377
time step continuity errors : sum local = 5.87488e-11, global = 2.00283e-22, cumulative = 4.71022e-22
[OGL LOG][Proc: 0]global_index_init: 0.007 [ms]
[OGL LOG][Proc: 0]global_index_init: 0.001 [ms]
[OGL LOG][Proc: 0]update_host_matrix_data: 551.425 [ms]
[OGL LOG][Proc: 0]gather_global_matrix: 0 [ms]
[OGL LOG][Proc: 0]generate_distributed_matrix: 262.352 [ms]
[OGL LOG][Proc: 0]init_precond: 0.044 [ms]
[OGL LOG][Proc: 0]generate_solver: 0.002 [ms]
[OGL LOG][Proc: 0]solve: 16936.1 [ms]
[OGL LOG][Proc: 0]copy_x_back: 81.776 [ms]
[OGL LOG][lduLduBase.H:380] 
Statistics:
	Time per iteration: 5505 [mu s]
	Time per iteration and DOF: 0.086016 [ns]
	Retrieve results bandwith 2.087000 [GByte/s]
nonecudaGKOCG:  Solving for p, Initial residual = 0.0734255, Final residual = 4.52612e-05, No Iterations 3076
linear solve p 18004412
time step continuity errors : sum local = 8.12231e-11, global = 2.9349e-23, cumulative = 5.00371e-22
ExecutionTime = 3803.43 s  ClockTime = 3810 s

Time = 0.0002

Courant Number mean: 0.00334406 max: 0.0940895
DILUPBiCGStab:  Solving for Ux, Initial residual = 0.0198941, Final residual = 2.0487e-05, No Iterations 5
DILUPBiCGStab:  Solving for Uy, Initial residual = 0.0346108, Final residual = 8.01051e-06, No Iterations 5
DILUPBiCGStab:  Solving for Uz, Initial residual = 0.0579336, Final residual = 5.39625e-05, No Iterations 5
linear solve U 28702316
[OGL LOG][Proc: 0]global_index_init: 0.009 [ms]
[OGL LOG][Proc: 0]global_index_init: 0 [ms]
[OGL LOG][Proc: 0]update_host_matrix_data: 547.981 [ms]
[OGL LOG][Proc: 0]gather_global_matrix: 0 [ms]
[OGL LOG][Proc: 0]generate_distributed_matrix: 265.937 [ms]
[OGL LOG][Proc: 0]init_precond: 0.038 [ms]
[OGL LOG][Proc: 0]generate_solver: 0.002 [ms]
[OGL LOG][Proc: 0]solve: 16967.8 [ms]
[OGL LOG][Proc: 0]copy_x_back: 80.025 [ms]
[OGL LOG][lduLduBase.H:380] 
Statistics:
	Time per iteration: 5516 [mu s]
	Time per iteration and DOF: 0.086188 [ns]
	Retrieve results bandwith 2.132000 [GByte/s]
nonecudaGKOCG:  Solving for p, Initial residual = 0.0561795, Final residual = 3.64232e-05, No Iterations 3076
linear solve p 18058355
time step continuity errors : sum local = 6.44604e-11, global = 3.47041e-23, cumulative = 5.35075e-22
[OGL LOG][Proc: 0]global_index_init: 0.008 [ms]
[OGL LOG][Proc: 0]global_index_init: 0 [ms]
[OGL LOG][Proc: 0]update_host_matrix_data: 548.693 [ms]
[OGL LOG][Proc: 0]gather_global_matrix: 0 [ms]
[OGL LOG][Proc: 0]generate_distributed_matrix: 262.378 [ms]
[OGL LOG][Proc: 0]init_precond: 0.038 [ms]
[OGL LOG][Proc: 0]generate_solver: 0.002 [ms]
[OGL LOG][Proc: 0]solve: 16934.2 [ms]
[OGL LOG][Proc: 0]copy_x_back: 81.386 [ms]
[OGL LOG][lduLduBase.H:380] 
Statistics:
	Time per iteration: 5505 [mu s]
	Time per iteration and DOF: 0.086016 [ns]
	Retrieve results bandwith 2.097000 [GByte/s]
nonecudaGKOCG:  Solving for p, Initial residual = 0.0479406, Final residual = 3.40832e-05, No Iterations 3076
linear solve p 17999112
time step continuity errors : sum local = 6.03771e-11, global = 6.80111e-23, cumulative = 6.03086e-22
ExecutionTime = 3888.52 s  ClockTime = 3896 s

Time = 0.000225

Courant Number mean: 0.0035584 max: 0.0944931
DILUPBiCGStab:  Solving for Ux, Initial residual = 0.0176143, Final residual = 1.56846e-05, No Iterations 5
DILUPBiCGStab:  Solving for Uy, Initial residual = 0.0300834, Final residual = 8.13292e-06, No Iterations 5
DILUPBiCGStab:  Solving for Uz, Initial residual = 0.0517247, Final residual = 3.85453e-05, No Iterations 5
linear solve U 28772731
[OGL LOG][Proc: 0]global_index_init: 0.013 [ms]
[OGL LOG][Proc: 0]global_index_init: 0 [ms]
[OGL LOG][Proc: 0]update_host_matrix_data: 547.894 [ms]
[OGL LOG][Proc: 0]gather_global_matrix: 0 [ms]
[OGL LOG][Proc: 0]generate_distributed_matrix: 265.922 [ms]
[OGL LOG][Proc: 0]init_precond: 0.037 [ms]
[OGL LOG][Proc: 0]generate_solver: 0.002 [ms]
[OGL LOG][Proc: 0]solve: 16334.6 [ms]
[OGL LOG][Proc: 0]copy_x_back: 80.538 [ms]
[OGL LOG][lduLduBase.H:380] 
Statistics:
	Time per iteration: 5531 [mu s]
	Time per iteration and DOF: 0.086422 [ns]
	Retrieve results bandwith 2.119000 [GByte/s]
nonecudaGKOCG:  Solving for p, Initial residual = 0.0413941, Final residual = 8.73018e-05, No Iterations 2953
linear solve p 17426016
time step continuity errors : sum local = 1.53271e-10, global = -5.73082e-23, cumulative = 5.45778e-22
[OGL LOG][Proc: 0]global_index_init: 0.008 [ms]
[OGL LOG][Proc: 0]global_index_init: 0.001 [ms]
[OGL LOG][Proc: 0]update_host_matrix_data: 548.535 [ms]
[OGL LOG][Proc: 0]gather_global_matrix: 0 [ms]
[OGL LOG][Proc: 0]generate_distributed_matrix: 265.148 [ms]
[OGL LOG][Proc: 0]init_precond: 0.04 [ms]
[OGL LOG][Proc: 0]generate_solver: 0.002 [ms]
[OGL LOG][Proc: 0]solve: 16288.1 [ms]
[OGL LOG][Proc: 0]copy_x_back: 81.262 [ms]
[OGL LOG][lduLduBase.H:380] 
Statistics:
	Time per iteration: 5519 [mu s]
	Time per iteration and DOF: 0.086234 [ns]
	Retrieve results bandwith 2.100000 [GByte/s]
nonecudaGKOCG:  Solving for p, Initial residual = 0.0356086, Final residual = 8.22567e-05, No Iterations 2951
linear solve p 17355247
time step continuity errors : sum local = 1.44455e-10, global = 1.39781e-24, cumulative = 5.47176e-22
ExecutionTime = 3972.37 s  ClockTime = 3980 s

Time = 0.00025

Courant Number mean: 0.00375648 max: 0.0948208
DILUPBiCGStab:  Solving for Ux, Initial residual = 0.0158217, Final residual = 1.23949e-05, No Iterations 5
DILUPBiCGStab:  Solving for Uy, Initial residual = 0.0265866, Final residual = 5.1638e-06, No Iterations 5
DILUPBiCGStab:  Solving for Uz, Initial residual = 0.0464712, Final residual = 2.9523e-05, No Iterations 5
linear solve U 28735321
[OGL LOG][Proc: 0]global_index_init: 0.014 [ms]
[OGL LOG][Proc: 0]global_index_init: 0.001 [ms]
[OGL LOG][Proc: 0]update_host_matrix_data: 547.564 [ms]
[OGL LOG][Proc: 0]gather_global_matrix: 0 [ms]
[OGL LOG][Proc: 0]generate_distributed_matrix: 264.731 [ms]
[OGL LOG][Proc: 0]init_precond: 0.039 [ms]
[OGL LOG][Proc: 0]generate_solver: 0.002 [ms]
[OGL LOG][Proc: 0]solve: 16320.1 [ms]
[OGL LOG][Proc: 0]copy_x_back: 80.758 [ms]
[OGL LOG][lduLduBase.H:380] 
Statistics:
	Time per iteration: 5530 [mu s]
	Time per iteration and DOF: 0.086406 [ns]
	Retrieve results bandwith 2.113000 [GByte/s]
nonecudaGKOCG:  Solving for p, Initial residual = 0.0301836, Final residual = 7.43355e-05, No Iterations 2951
linear solve p 17412742
time step continuity errors : sum local = 1.29962e-10, global = 2.25593e-23, cumulative = 5.69735e-22
[OGL LOG][Proc: 0]global_index_init: 0.007 [ms]
[OGL LOG][Proc: 0]global_index_init: 0.001 [ms]
[OGL LOG][Proc: 0]update_host_matrix_data: 548.9 [ms]
[OGL LOG][Proc: 0]gather_global_matrix: 0 [ms]
[OGL LOG][Proc: 0]generate_distributed_matrix: 266.382 [ms]
[OGL LOG][Proc: 0]init_precond: 0.039 [ms]
[OGL LOG][Proc: 0]generate_solver: 0.002 [ms]
[OGL LOG][Proc: 0]solve: 16290.8 [ms]
[OGL LOG][Proc: 0]copy_x_back: 81.76 [ms]
[OGL LOG][lduLduBase.H:380] 
Statistics:
	Time per iteration: 5520 [mu s]
	Time per iteration and DOF: 0.086250 [ns]
	Retrieve results bandwith 2.087000 [GByte/s]
nonecudaGKOCG:  Solving for p, Initial residual = 0.0267093, Final residual = 6.57717e-05, No Iterations 2951
linear solve p 17359814
time step continuity errors : sum local = 1.15092e-10, global = 1.59156e-22, cumulative = 7.28891e-22
ExecutionTime = 4056.22 s  ClockTime = 4064 s

Time = 0.000275

Courant Number mean: 0.00394099 max: 0.0950938
DILUPBiCGStab:  Solving for Ux, Initial residual = 0.0143686, Final residual = 9.9414e-06, No Iterations 5
DILUPBiCGStab:  Solving for Uy, Initial residual = 0.023819, Final residual = 4.91965e-06, No Iterations 5
DILUPBiCGStab:  Solving for Uz, Initial residual = 0.0422366, Final residual = 2.2966e-05, No Iterations 5
linear solve U 28750631
[OGL LOG][Proc: 0]global_index_init: 0.008 [ms]
[OGL LOG][Proc: 0]global_index_init: 0.001 [ms]
[OGL LOG][Proc: 0]update_host_matrix_data: 548.653 [ms]
[OGL LOG][Proc: 0]gather_global_matrix: 0 [ms]
[OGL LOG][Proc: 0]generate_distributed_matrix: 267.211 [ms]
[OGL LOG][Proc: 0]init_precond: 0.039 [ms]
[OGL LOG][Proc: 0]generate_solver: 0.002 [ms]
[OGL LOG][Proc: 0]solve: 16297.1 [ms]
[OGL LOG][Proc: 0]copy_x_back: 81.251 [ms]
[OGL LOG][lduLduBase.H:380] 
Statistics:
	Time per iteration: 5522 [mu s]
	Time per iteration and DOF: 0.086281 [ns]
	Retrieve results bandwith 2.100000 [GByte/s]
nonecudaGKOCG:  Solving for p, Initial residual = 0.0240837, Final residual = 7.32407e-05, No Iterations 2951
linear solve p 17391384
time step continuity errors : sum local = 1.27795e-10, global = 3.57064e-23, cumulative = 7.64598e-22
[OGL LOG][Proc: 0]global_index_init: 0.006 [ms]
[OGL LOG][Proc: 0]global_index_init: 0.001 [ms]
[OGL LOG][Proc: 0]update_host_matrix_data: 549.361 [ms]
[OGL LOG][Proc: 0]gather_global_matrix: 0 [ms]
[OGL LOG][Proc: 0]generate_distributed_matrix: 264.686 [ms]
[OGL LOG][Proc: 0]init_precond: 0.04 [ms]
[OGL LOG][Proc: 0]generate_solver: 0.002 [ms]
[OGL LOG][Proc: 0]solve: 16311.2 [ms]
[OGL LOG][Proc: 0]copy_x_back: 81.437 [ms]
[OGL LOG][lduLduBase.H:380] 
Statistics:
	Time per iteration: 5527 [mu s]
	Time per iteration and DOF: 0.086359 [ns]
	Retrieve results bandwith 2.095000 [GByte/s]
nonecudaGKOCG:  Solving for p, Initial residual = 0.0216533, Final residual = 6.92708e-05, No Iterations 2951
linear solve p 17380026
time step continuity errors : sum local = 1.20917e-10, global = 5.70982e-23, cumulative = 8.21696e-22
ExecutionTime = 4140.03 s  ClockTime = 4148 s

Time = 0.0003

Courant Number mean: 0.00411402 max: 0.0953257
DILUPBiCGStab:  Solving for Ux, Initial residual = 0.0131675, Final residual = 8.13426e-06, No Iterations 5
DILUPBiCGStab:  Solving for Uy, Initial residual = 0.0215627, Final residual = 3.84315e-06, No Iterations 5
DILUPBiCGStab:  Solving for Uz, Initial residual = 0.0387873, Final residual = 1.8592e-05, No Iterations 5
linear solve U 28752210
[OGL LOG][Proc: 0]global_index_init: 0.009 [ms]
[OGL LOG][Proc: 0]global_index_init: 0.001 [ms]
[OGL LOG][Proc: 0]update_host_matrix_data: 550.334 [ms]
[OGL LOG][Proc: 0]gather_global_matrix: 0 [ms]
[OGL LOG][Proc: 0]generate_distributed_matrix: 263.237 [ms]
[OGL LOG][Proc: 0]init_precond: 0.04 [ms]
[OGL LOG][Proc: 0]generate_solver: 0.002 [ms]
[OGL LOG][Proc: 0]solve: 16296.2 [ms]
[OGL LOG][Proc: 0]copy_x_back: 81.286 [ms]
[OGL LOG][lduLduBase.H:380] 
Statistics:
	Time per iteration: 5522 [mu s]
	Time per iteration and DOF: 0.086281 [ns]
	Retrieve results bandwith 2.099000 [GByte/s]
nonecudaGKOCG:  Solving for p, Initial residual = 0.0190895, Final residual = 5.48401e-05, No Iterations 2951
linear solve p 17388872
time step continuity errors : sum local = 9.56274e-11, global = 1.71575e-23, cumulative = 8.38854e-22
[OGL LOG][Proc: 0]global_index_init: 0.008 [ms]
[OGL LOG][Proc: 0]global_index_init: 0.001 [ms]
[OGL LOG][Proc: 0]update_host_matrix_data: 551.014 [ms]
[OGL LOG][Proc: 0]gather_global_matrix: 0 [ms]
[OGL LOG][Proc: 0]generate_distributed_matrix: 264.16 [ms]
[OGL LOG][Proc: 0]init_precond: 0.04 [ms]
[OGL LOG][Proc: 0]generate_solver: 0.002 [ms]
[OGL LOG][Proc: 0]solve: 16293.8 [ms]
[OGL LOG][Proc: 0]copy_x_back: 81.524 [ms]
[OGL LOG][lduLduBase.H:380] 
Statistics:
	Time per iteration: 5521 [mu s]
	Time per iteration and DOF: 0.086266 [ns]
	Retrieve results bandwith 2.093000 [GByte/s]
nonecudaGKOCG:  Solving for p, Initial residual = 0.017576, Final residual = 5.12112e-05, No Iterations 2951
linear solve p 17362500
time step continuity errors : sum local = 8.93565e-11, global = -1.32111e-22, cumulative = 7.06743e-22
ExecutionTime = 4223.84 s  ClockTime = 4232 s

Time = 0.000325

Courant Number mean: 0.00427728 max: 0.0955259
DILUPBiCGStab:  Solving for Ux, Initial residual = 0.012155, Final residual = 6.7696e-06, No Iterations 5
DILUPBiCGStab:  Solving for Uy, Initial residual = 0.0196955, Final residual = 3.56032e-06, No Iterations 5
DILUPBiCGStab:  Solving for Uz, Initial residual = 0.0359958, Final residual = 1.53015e-05, No Iterations 5
linear solve U 28720150
[OGL LOG][Proc: 0]global_index_init: 0.007 [ms]
[OGL LOG][Proc: 0]global_index_init: 0.001 [ms]
[OGL LOG][Proc: 0]update_host_matrix_data: 547.735 [ms]
[OGL LOG][Proc: 0]gather_global_matrix: 0 [ms]
[OGL LOG][Proc: 0]generate_distributed_matrix: 265.046 [ms]
[OGL LOG][Proc: 0]init_precond: 0.04 [ms]
[OGL LOG][Proc: 0]generate_solver: 0.002 [ms]
[OGL LOG][Proc: 0]solve: 16295.8 [ms]
[OGL LOG][Proc: 0]copy_x_back: 81.105 [ms]
[OGL LOG][lduLduBase.H:380] 
Statistics:
	Time per iteration: 5522 [mu s]
	Time per iteration and DOF: 0.086281 [ns]
	Retrieve results bandwith 2.104000 [GByte/s]
nonecudaGKOCG:  Solving for p, Initial residual = 0.0164692, Final residual = 5.81595e-05, No Iterations 2951
linear solve p 17386654
time step continuity errors : sum local = 1.01336e-10, global = 8.22958e-23, cumulative = 7.89039e-22
[OGL LOG][Proc: 0]global_index_init: 0.007 [ms]
[OGL LOG][Proc: 0]global_index_init: 0.001 [ms]
[OGL LOG][Proc: 0]update_host_matrix_data: 549.459 [ms]
[OGL LOG][Proc: 0]gather_global_matrix: 0 [ms]
[OGL LOG][Proc: 0]generate_distributed_matrix: 266.735 [ms]
[OGL LOG][Proc: 0]init_precond: 0.039 [ms]
[OGL LOG][Proc: 0]generate_solver: 0.002 [ms]
[OGL LOG][Proc: 0]solve: 16289.8 [ms]
[OGL LOG][Proc: 0]copy_x_back: 81.396 [ms]
[OGL LOG][lduLduBase.H:380] 
Statistics:
	Time per iteration: 5520 [mu s]
	Time per iteration and DOF: 0.086250 [ns]
	Retrieve results bandwith 2.096000 [GByte/s]
nonecudaGKOCG:  Solving for p, Initial residual = 0.0152648, Final residual = 5.51114e-05, No Iterations 2951
linear solve p 17359620
time step continuity errors : sum local = 9.60649e-11, global = 2.242e-23, cumulative = 8.11459e-22
ExecutionTime = 4307.61 s  ClockTime = 4316 s

Time = 0.00035

Courant Number mean: 0.00443196 max: 0.095701
DILUPBiCGStab:  Solving for Ux, Initial residual = 0.0112904, Final residual = 5.72442e-06, No Iterations 5
DILUPBiCGStab:  Solving for Uy, Initial residual = 0.0181194, Final residual = 3.07588e-06, No Iterations 5
DILUPBiCGStab:  Solving for Uz, Initial residual = 0.0333227, Final residual = 1.27415e-05, No Iterations 5
linear solve U 28705781
[OGL LOG][Proc: 0]global_index_init: 0.011 [ms]
[OGL LOG][Proc: 0]global_index_init: 0 [ms]
[OGL LOG][Proc: 0]update_host_matrix_data: 547.881 [ms]
[OGL LOG][Proc: 0]gather_global_matrix: 0 [ms]
[OGL LOG][Proc: 0]generate_distributed_matrix: 265.556 [ms]
[OGL LOG][Proc: 0]init_precond: 0.038 [ms]
[OGL LOG][Proc: 0]generate_solver: 0.002 [ms]
[OGL LOG][Proc: 0]solve: 16296 [ms]
[OGL LOG][Proc: 0]copy_x_back: 80.943 [ms]
[OGL LOG][lduLduBase.H:380] 
Statistics:
	Time per iteration: 5522 [mu s]
	Time per iteration and DOF: 0.086281 [ns]
	Retrieve results bandwith 2.108000 [GByte/s]
nonecudaGKOCG:  Solving for p, Initial residual = 0.0141732, Final residual = 4.78716e-05, No Iterations 2951
linear solve p 17387753
time step continuity errors : sum local = 8.34502e-11, global = 2.40232e-23, cumulative = 8.35482e-22
[OGL LOG][Proc: 0]global_index_init: 0.007 [ms]
[OGL LOG][Proc: 0]global_index_init: 0.001 [ms]
[OGL LOG][Proc: 0]update_host_matrix_data: 548.602 [ms]
[OGL LOG][Proc: 0]gather_global_matrix: 0 [ms]
[OGL LOG][Proc: 0]generate_distributed_matrix: 265.895 [ms]
[OGL LOG][Proc: 0]init_precond: 0.037 [ms]
[OGL LOG][Proc: 0]generate_solver: 0.002 [ms]
[OGL LOG][Proc: 0]solve: 16294.1 [ms]
[OGL LOG][Proc: 0]copy_x_back: 81.361 [ms]
[OGL LOG][lduLduBase.H:380] 
Statistics:
	Time per iteration: 5521 [mu s]
	Time per iteration and DOF: 0.086266 [ns]
	Retrieve results bandwith 2.097000 [GByte/s]
nonecudaGKOCG:  Solving for p, Initial residual = 0.0133055, Final residual = 4.51369e-05, No Iterations 2951
linear solve p 17362053
time step continuity errors : sum local = 7.87214e-11, global = -1.9751e-23, cumulative = 8.15731e-22
ExecutionTime = 4391.37 s  ClockTime = 4400 s

Time = 0.000375

Courant Number mean: 0.00457905 max: 0.0958558
DILUPBiCGStab:  Solving for Ux, Initial residual = 0.010542, Final residual = 4.91444e-06, No Iterations 5
DILUPBiCGStab:  Solving for Uy, Initial residual = 0.0167747, Final residual = 2.83399e-06, No Iterations 5
DILUPBiCGStab:  Solving for Uz, Initial residual = 0.0310885, Final residual = 1.08202e-05, No Iterations 5
linear solve U 28684644
[OGL LOG][Proc: 0]global_index_init: 0.014 [ms]
[OGL LOG][Proc: 0]global_index_init: 0.001 [ms]
[OGL LOG][Proc: 0]update_host_matrix_data: 548.936 [ms]
[OGL LOG][Proc: 0]gather_global_matrix: 0 [ms]
[OGL LOG][Proc: 0]generate_distributed_matrix: 266.519 [ms]
[OGL LOG][Proc: 0]init_precond: 0.037 [ms]
[OGL LOG][Proc: 0]generate_solver: 0.002 [ms]
[OGL LOG][Proc: 0]solve: 16298.9 [ms]
[OGL LOG][Proc: 0]copy_x_back: 81.263 [ms]
[OGL LOG][lduLduBase.H:380] 
Statistics:
	Time per iteration: 5523 [mu s]
	Time per iteration and DOF: 0.086297 [ns]
	Retrieve results bandwith 2.100000 [GByte/s]
nonecudaGKOCG:  Solving for p, Initial residual = 0.0125432, Final residual = 4.00798e-05, No Iterations 2951
linear solve p 17393024
time step continuity errors : sum local = 6.98539e-11, global = -6.18596e-23, cumulative = 7.53871e-22
[OGL LOG][Proc: 0]global_index_init: 0.007 [ms]
[OGL LOG][Proc: 0]global_index_init: 0.001 [ms]
[OGL LOG][Proc: 0]update_host_matrix_data: 549.407 [ms]
[OGL LOG][Proc: 0]gather_global_matrix: 0 [ms]
[OGL LOG][Proc: 0]generate_distributed_matrix: 262.612 [ms]
[OGL LOG][Proc: 0]init_precond: 0.039 [ms]
[OGL LOG][Proc: 0]generate_solver: 0.002 [ms]
[OGL LOG][Proc: 0]solve: 16291 [ms]
[OGL LOG][Proc: 0]copy_x_back: 81.504 [ms]
[OGL LOG][lduLduBase.H:380] 
Statistics:
	Time per iteration: 5520 [mu s]
	Time per iteration and DOF: 0.086250 [ns]
	Retrieve results bandwith 2.093000 [GByte/s]
nonecudaGKOCG:  Solving for p, Initial residual = 0.0118269, Final residual = 3.72373e-05, No Iterations 2951
linear solve p 17356644
time step continuity errors : sum local = 6.49235e-11, global = 3.39464e-23, cumulative = 7.87817e-22
ExecutionTime = 4475.1 s  ClockTime = 4484 s

Time = 0.0004

Courant Number mean: 0.00471954 max: 0.095994
DILUPBiCGStab:  Solving for Ux, Initial residual = 0.00988805, Final residual = 4.27803e-06, No Iterations 5
DILUPBiCGStab:  Solving for Uy, Initial residual = 0.0156118, Final residual = 2.55234e-06, No Iterations 5
DILUPBiCGStab:  Solving for Uz, Initial residual = 0.0291888, Final residual = 9.29299e-06, No Iterations 5
linear solve U 28636302
[OGL LOG][Proc: 0]global_index_init: 0.013 [ms]
[OGL LOG][Proc: 0]global_index_init: 0.001 [ms]
[OGL LOG][Proc: 0]update_host_matrix_data: 549.889 [ms]
[OGL LOG][Proc: 0]gather_global_matrix: 0 [ms]
[OGL LOG][Proc: 0]generate_distributed_matrix: 263.186 [ms]
[OGL LOG][Proc: 0]init_precond: 0.04 [ms]
[OGL LOG][Proc: 0]generate_solver: 0.002 [ms]
[OGL LOG][Proc: 0]solve: 16304.3 [ms]
[OGL LOG][Proc: 0]copy_x_back: 82.146 [ms]
[OGL LOG][lduLduBase.H:380] 
Statistics:
	Time per iteration: 5524 [mu s]
	Time per iteration and DOF: 0.086313 [ns]
	Retrieve results bandwith 2.077000 [GByte/s]
nonecudaGKOCG:  Solving for p, Initial residual = 0.0112603, Final residual = 3.60873e-05, No Iterations 2951
linear solve p 17397305
time step continuity errors : sum local = 6.29273e-11, global = -9.95255e-23, cumulative = 6.88292e-22
[OGL LOG][Proc: 0]global_index_init: 0.007 [ms]
[OGL LOG][Proc: 0]global_index_init: 0.001 [ms]
[OGL LOG][Proc: 0]update_host_matrix_data: 550.69 [ms]
[OGL LOG][Proc: 0]gather_global_matrix: 0 [ms]
[OGL LOG][Proc: 0]generate_distributed_matrix: 264.956 [ms]
[OGL LOG][Proc: 0]init_precond: 0.042 [ms]
[OGL LOG][Proc: 0]generate_solver: 0.002 [ms]
[OGL LOG][Proc: 0]solve: 16290 [ms]
[OGL LOG][Proc: 0]copy_x_back: 81.752 [ms]
[OGL LOG][lduLduBase.H:380] 
Statistics:
	Time per iteration: 5520 [mu s]
	Time per iteration and DOF: 0.086250 [ns]
	Retrieve results bandwith 2.087000 [GByte/s]
nonecudaGKOCG:  Solving for p, Initial residual = 0.0106817, Final residual = 3.31041e-05, No Iterations 2951
linear solve p 17359889
time step continuity errors : sum local = 5.7748e-11, global = 8.234e-24, cumulative = 6.96526e-22
ExecutionTime = 4558.79 s  ClockTime = 4568 s

Time = 0.000425

Courant Number mean: 0.00485391 max: 0.0961184
DILUPBiCGStab:  Solving for Ux, Initial residual = 0.00931089, Final residual = 3.77145e-06, No Iterations 5
DILUPBiCGStab:  Solving for Uy, Initial residual = 0.0145975, Final residual = 2.35394e-06, No Iterations 5
DILUPBiCGStab:  Solving for Uz, Initial residual = 0.0274489, Final residual = 8.06344e-06, No Iterations 5
linear solve U 28684760
[OGL LOG][Proc: 0]global_index_init: 0.013 [ms]
[OGL LOG][Proc: 0]global_index_init: 0.001 [ms]
[OGL LOG][Proc: 0]update_host_matrix_data: 547.924 [ms]
[OGL LOG][Proc: 0]gather_global_matrix: 0 [ms]
[OGL LOG][Proc: 0]generate_distributed_matrix: 264.825 [ms]
[OGL LOG][Proc: 0]init_precond: 0.038 [ms]
[OGL LOG][Proc: 0]generate_solver: 0.002 [ms]
[OGL LOG][Proc: 0]solve: 15692.5 [ms]
[OGL LOG][Proc: 0]copy_x_back: 80.888 [ms]
[OGL LOG][lduLduBase.H:380] 
Statistics:
	Time per iteration: 5539 [mu s]
	Time per iteration and DOF: 0.086547 [ns]
	Retrieve results bandwith 2.109000 [GByte/s]
nonecudaGKOCG:  Solving for p, Initial residual = 0.0102125, Final residual = 9.80866e-05, No Iterations 2833
linear solve p 16783105
time step continuity errors : sum local = 1.71074e-10, global = 6.59265e-23, cumulative = 7.62452e-22
[OGL LOG][Proc: 0]global_index_init: 0.006 [ms]
[OGL LOG][Proc: 0]global_index_init: 0 [ms]
[OGL LOG][Proc: 0]update_host_matrix_data: 549.73 [ms]
[OGL LOG][Proc: 0]gather_global_matrix: 0 [ms]
[OGL LOG][Proc: 0]generate_distributed_matrix: 265.262 [ms]
[OGL LOG][Proc: 0]init_precond: 0.04 [ms]
[OGL LOG][Proc: 0]generate_solver: 0.002 [ms]
[OGL LOG][Proc: 0]solve: 15645.4 [ms]
[OGL LOG][Proc: 0]copy_x_back: 81.639 [ms]
[OGL LOG][lduLduBase.H:380] 
Statistics:
	Time per iteration: 5536 [mu s]
	Time per iteration and DOF: 0.086500 [ns]
	Retrieve results bandwith 2.090000 [GByte/s]
nonecudaGKOCG:  Solving for p, Initial residual = 0.00972257, Final residual = 8.47746e-05, No Iterations 2826
linear solve p 16714067
time step continuity errors : sum local = 1.47907e-10, global = -1.17786e-23, cumulative = 7.50674e-22
ExecutionTime = 4641.25 s  ClockTime = 4650 s

Time = 0.00045

Courant Number mean: 0.00498294 max: 0.096231
DILUPBiCGStab:  Solving for Ux, Initial residual = 0.00879791, Final residual = 3.3606e-06, No Iterations 5
DILUPBiCGStab:  Solving for Uy, Initial residual = 0.0137043, Final residual = 2.15556e-06, No Iterations 5
DILUPBiCGStab:  Solving for Uz, Initial residual = 0.0258887, Final residual = 7.07842e-06, No Iterations 5
linear solve U 28696962
[OGL LOG][Proc: 0]global_index_init: 0.007 [ms]
[OGL LOG][Proc: 0]global_index_init: 0.001 [ms]
[OGL LOG][Proc: 0]update_host_matrix_data: 549.306 [ms]
[OGL LOG][Proc: 0]gather_global_matrix: 0 [ms]
[OGL LOG][Proc: 0]generate_distributed_matrix: 263.641 [ms]
[OGL LOG][Proc: 0]init_precond: 0.04 [ms]
[OGL LOG][Proc: 0]generate_solver: 0.002 [ms]
[OGL LOG][Proc: 0]solve: 12727 [ms]
[OGL LOG][Proc: 0]copy_x_back: 81.368 [ms]
[OGL LOG][lduLduBase.H:380] 
Statistics:
	Time per iteration: 5628 [mu s]
	Time per iteration and DOF: 0.087938 [ns]
	Retrieve results bandwith 2.097000 [GByte/s]
nonecudaGKOCG:  Solving for p, Initial residual = 0.00976492, Final residual = 8.20171e-05, No Iterations 2261
linear solve p 13818272
time step continuity errors : sum local = 1.44071e-10, global = 6.68056e-23, cumulative = 8.17479e-22
[OGL LOG][Proc: 0]global_index_init: 0.006 [ms]
[OGL LOG][Proc: 0]global_index_init: 0.001 [ms]
[OGL LOG][Proc: 0]update_host_matrix_data: 549.299 [ms]
[OGL LOG][Proc: 0]gather_global_matrix: 0 [ms]
[OGL LOG][Proc: 0]generate_distributed_matrix: 265.344 [ms]
[OGL LOG][Proc: 0]init_precond: 0.039 [ms]
[OGL LOG][Proc: 0]generate_solver: 0.002 [ms]
[OGL LOG][Proc: 0]solve: 10803.7 [ms]
[OGL LOG][Proc: 0]copy_x_back: 81.111 [ms]
[OGL LOG][lduLduBase.H:380] 
Statistics:
	Time per iteration: 5713 [mu s]
	Time per iteration and DOF: 0.089266 [ns]
	Retrieve results bandwith 2.104000 [GByte/s]
nonecudaGKOCG:  Solving for p, Initial residual = 0.00930158, Final residual = 2.0246e-06, No Iterations 1891
linear solve p 11871164
time step continuity errors : sum local = 3.79561e-12, global = -1.51456e-23, cumulative = 8.02334e-22
ExecutionTime = 4715.93 s  ClockTime = 4725 s

Time = 0.000475

Courant Number mean: 0.00510696 max: 0.0963337
DILUPBiCGStab:  Solving for Ux, Initial residual = 0.00833824, Final residual = 3.02779e-06, No Iterations 5
DILUPBiCGStab:  Solving for Uy, Initial residual = 0.0129128, Final residual = 1.99131e-06, No Iterations 5
DILUPBiCGStab:  Solving for Uz, Initial residual = 0.0246809, Final residual = 6.40852e-06, No Iterations 5
linear solve U 28720382
[OGL LOG][Proc: 0]global_index_init: 0.007 [ms]
[OGL LOG][Proc: 0]global_index_init: 0 [ms]
[OGL LOG][Proc: 0]update_host_matrix_data: 549.357 [ms]
[OGL LOG][Proc: 0]gather_global_matrix: 0 [ms]
[OGL LOG][Proc: 0]generate_distributed_matrix: 265.169 [ms]
[OGL LOG][Proc: 0]init_precond: 0.038 [ms]
[OGL LOG][Proc: 0]generate_solver: 0.003 [ms]
[OGL LOG][Proc: 0]solve: 9174.08 [ms]
[OGL LOG][Proc: 0]copy_x_back: 81.742 [ms]
[OGL LOG][lduLduBase.H:380] 
Statistics:
	Time per iteration: 5821 [mu s]
	Time per iteration and DOF: 0.090953 [ns]
	Retrieve results bandwith 2.087000 [GByte/s]
nonecudaGKOCG:  Solving for p, Initial residual = 0.00881287, Final residual = 7.72303e-06, No Iterations 1576
linear solve p 10243272
time step continuity errors : sum local = 1.36087e-11, global = -2.49024e-23, cumulative = 7.77431e-22
[OGL LOG][Proc: 0]global_index_init: 0.006 [ms]
[OGL LOG][Proc: 0]global_index_init: 0.001 [ms]
[OGL LOG][Proc: 0]update_host_matrix_data: 548.89 [ms]
[OGL LOG][Proc: 0]gather_global_matrix: 0 [ms]
[OGL LOG][Proc: 0]generate_distributed_matrix: 234.715 [ms]
[OGL LOG][Proc: 0]init_precond: 0.038 [ms]
[OGL LOG][Proc: 0]generate_solver: 0.002 [ms]
[OGL LOG][Proc: 0]solve: 7587.04 [ms]
[OGL LOG][Proc: 0]copy_x_back: 80.066 [ms]
[OGL LOG][lduLduBase.H:380] 
Statistics:
	Time per iteration: 6016 [mu s]
	Time per iteration and DOF: 0.094000 [ns]
	Retrieve results bandwith 2.131000 [GByte/s]
nonecudaGKOCG:  Solving for p, Initial residual = 0.00840106, Final residual = 2.58937e-05, No Iterations 1261
linear solve p 8643971
================================================================================
hash: a726ffced6290cdd460c77c3ff19d6cf
/*---------------------------------------------------------------------------*\
| =========                 |                                                 |
| \\      /  F ield         | OpenFOAM: The Open Source CFD Toolbox           |
|  \\    /   O peration     | Version:  2112                                  |
|   \\  /    A nd           | Website:  www.openfoam.com                      |
|    \\/     M anipulation  |                                                 |
\*---------------------------------------------------------------------------*/
Build  : d44c8318f0-20220111 OPENFOAM=2112 version=v2112
Arch   : "LSB;label=32;scalar=64"
Exec   : icoFoam -parallel
Date   : Jun 26 2022
Time   : 14:00:25
Host   : hkn0701.localdomain
PID    : 2575813
I/O    : uncollated
Case   : /hkfs/work/workspace/scratch/eq4036-lidDrivenCavity/simple/mesh/400/matrix_solver/CG_NoPrecond_CUDA/mpiRank_gko/2/base
nProcs : 2
Hosts  :
(
    (hkn0701.localdomain 2)
)
Pstream initialized with:
    floatTransfer      : 0
    nProcsSimpleSum    : 0
    commsType          : nonBlocking
    polling iterations : 0
trapFpe: Floating point exception trapping enabled (FOAM_SIGFPE).
fileModificationChecking : Monitoring run-time modified files using timeStampMaster (fileModificationSkew 5, maxFileModificationPolls 20)
allowSystemOperations : Allowing user-supplied system call operations

// * * * * * * * * * * * * * * * * * * * * * * * * * * * * * * * * * * * * * //
Create time

Create mesh for time = 0


PISO: Operating solver in PISO mode

Reading transportProperties

Reading field p

Reading field U

Reading/calculating face flux field phi


Starting time loop

Time = 2.5e-05

Courant Number mean: 0 max: 0
DILUPBiCGStab:  Solving for Ux, Initial residual = 1, Final residual = 0.00118713, No Iterations 5
DILUPBiCGStab:  Solving for Uy:  solution singularity
DILUPBiCGStab:  Solving for Uz:  solution singularity
linear solve U 21068437
[OGL LOG][Proc: 0]global_index_init: 0.025 [ms]
[OGL LOG][Proc: 0]global_index_init: 0.001 [ms]
[OGL LOG][Proc: 0]init_host_sparsity_pattern: 2.37428e+06 [ms]
[OGL LOG][Proc: 0]update_host_matrix_data: 785.444 [ms]
[OGL LOG][Proc: 0]convert_coo_to_csr: 1294.41 [ms]
[OGL LOG][lduLduBase.H:153] Initialising OGL
	Version:  484b851
	branch: HEAD 
	Ginkgo version: 1.5.0(develop)
	MPI is GPU aware: 1)
	Forces host buffer based communication: 0
[OGL LOG][Proc: 0]gather_global_matrix: 0.004 [ms]
[OGL LOG][Proc: 0]generate_distributed_matrix: 359.657 [ms]
[OGL LOG][Proc: 0]init_precond: 0.067 [ms]
[OGL LOG][Proc: 0]generate_solver: 0.015 [ms]
[OGL LOG][Proc: 0]solve: 25980.4 [ms]
[OGL LOG][Proc: 0]copy_x_back: 122.34 [ms]
[OGL LOG][lduLduBase.H:380] 
Statistics:
	Time per iteration: 7976 [mu s]
	Time per iteration and DOF: 0.124625 [ns]
	Retrieve results bandwith 2.092000 [GByte/s]
nonecudaGKOCG:  Solving for p, Initial residual = 1, Final residual = 9.99642e-05, No Iterations 3257
linear solve p -1889544997
time step continuity errors : sum local = 2.4101e-10, global = 3.69329e-23, cumulative = 3.69329e-23
[OGL LOG][Proc: 0]global_index_init: 0.006 [ms]
[OGL LOG][Proc: 0]global_index_init: 0 [ms]
[OGL LOG][Proc: 0]update_host_matrix_data: 794.794 [ms]
[OGL LOG][Proc: 0]gather_global_matrix: 0 [ms]
[OGL LOG][Proc: 0]generate_distributed_matrix: 388.976 [ms]
[OGL LOG][Proc: 0]init_precond: 0.042 [ms]
[OGL LOG][Proc: 0]generate_solver: 0.002 [ms]
[OGL LOG][Proc: 0]solve: 25250.4 [ms]
[OGL LOG][Proc: 0]copy_x_back: 118.594 [ms]
[OGL LOG][lduLduBase.H:380] 
Statistics:
	Time per iteration: 7766 [mu s]
	Time per iteration and DOF: 0.121344 [ns]
	Retrieve results bandwith 2.158000 [GByte/s]
nonecudaGKOCG:  Solving for p, Initial residual = 0.716144, Final residual = 7.57502e-05, No Iterations 3251
linear solve p 26826585
time step continuity errors : sum local = 2.46448e-10, global = -1.14819e-23, cumulative = 2.5451e-23
ExecutionTime = 2592.59 s  ClockTime = 2597 s

Time = 5e-05

Courant Number mean: 0.00116777 max: 0.0751289
DILUPBiCGStab:  Solving for Ux, Initial residual = 0.159858, Final residual = 0.000682995, No Iterations 5
DILUPBiCGStab:  Solving for Uy, Initial residual = 0.348607, Final residual = 0.000497398, No Iterations 5
DILUPBiCGStab:  Solving for Uz, Initial residual = 0.997113, Final residual = 0.00255245, No Iterations 5
linear solve U 42284153
[OGL LOG][Proc: 0]global_index_init: 0.007 [ms]
[OGL LOG][Proc: 0]global_index_init: 0 [ms]
[OGL LOG][Proc: 0]update_host_matrix_data: 797.058 [ms]
[OGL LOG][Proc: 0]gather_global_matrix: 0 [ms]
[OGL LOG][Proc: 0]generate_distributed_matrix: 366.193 [ms]
[OGL LOG][Proc: 0]init_precond: 0.04 [ms]
[OGL LOG][Proc: 0]generate_solver: 0.002 [ms]
[OGL LOG][Proc: 0]solve: 25285 [ms]
[OGL LOG][Proc: 0]copy_x_back: 118.556 [ms]
[OGL LOG][lduLduBase.H:380] 
Statistics:
	Time per iteration: 7777 [mu s]
	Time per iteration and DOF: 0.121516 [ns]
	Retrieve results bandwith 2.159000 [GByte/s]
nonecudaGKOCG:  Solving for p, Initial residual = 0.654335, Final residual = 4.21558e-05, No Iterations 3251
linear solve p 26846555
time step continuity errors : sum local = 1.47779e-10, global = -2.17404e-23, cumulative = 3.71062e-24
[OGL LOG][Proc: 0]global_index_init: 0.006 [ms]
[OGL LOG][Proc: 0]global_index_init: 0 [ms]
[OGL LOG][Proc: 0]update_host_matrix_data: 796.414 [ms]
[OGL LOG][Proc: 0]gather_global_matrix: 0 [ms]
[OGL LOG][Proc: 0]generate_distributed_matrix: 368.838 [ms]
[OGL LOG][Proc: 0]init_precond: 0.035 [ms]
[OGL LOG][Proc: 0]generate_solver: 0.004 [ms]
[OGL LOG][Proc: 0]solve: 25280 [ms]
[OGL LOG][Proc: 0]copy_x_back: 118.375 [ms]
[OGL LOG][lduLduBase.H:380] 
Statistics:
	Time per iteration: 7776 [mu s]
	Time per iteration and DOF: 0.121500 [ns]
	Retrieve results bandwith 2.162000 [GByte/s]
nonecudaGKOCG:  Solving for p, Initial residual = 0.579844, Final residual = 3.66182e-05, No Iterations 3251
linear solve p 26845029
time step continuity errors : sum local = 1.30575e-10, global = -4.12908e-23, cumulative = -3.75801e-23
ExecutionTime = 2718.54 s  ClockTime = 2723 s

Time = 7.5e-05

Courant Number mean: 0.00178109 max: 0.0870166
DILUPBiCGStab:  Solving for Ux, Initial residual = 0.0661397, Final residual = 0.000178671, No Iterations 5
DILUPBiCGStab:  Solving for Uy, Initial residual = 0.138161, Final residual = 0.000120801, No Iterations 5
DILUPBiCGStab:  Solving for Uz, Initial residual = 0.426977, Final residual = 0.0012434, No Iterations 5
linear solve U 42166162
[OGL LOG][Proc: 0]global_index_init: 0.007 [ms]
[OGL LOG][Proc: 0]global_index_init: 0 [ms]
[OGL LOG][Proc: 0]update_host_matrix_data: 793.872 [ms]
[OGL LOG][Proc: 0]gather_global_matrix: 0 [ms]
[OGL LOG][Proc: 0]generate_distributed_matrix: 371.58 [ms]
[OGL LOG][Proc: 0]init_precond: 0.036 [ms]
[OGL LOG][Proc: 0]generate_solver: 0.002 [ms]
[OGL LOG][Proc: 0]solve: 24351.1 [ms]
[OGL LOG][Proc: 0]copy_x_back: 117.568 [ms]
[OGL LOG][lduLduBase.H:380] 
Statistics:
	Time per iteration: 7802 [mu s]
	Time per iteration and DOF: 0.121906 [ns]
	Retrieve results bandwith 2.177000 [GByte/s]
nonecudaGKOCG:  Solving for p, Initial residual = 0.556362, Final residual = 9.1239e-05, No Iterations 3121
linear solve p 25912363
time step continuity errors : sum local = 2.30526e-10, global = -3.32013e-25, cumulative = -3.79121e-23
[OGL LOG][Proc: 0]global_index_init: 0.014 [ms]
[OGL LOG][Proc: 0]global_index_init: 0 [ms]
[OGL LOG][Proc: 0]update_host_matrix_data: 796.91 [ms]
[OGL LOG][Proc: 0]gather_global_matrix: 0 [ms]
[OGL LOG][Proc: 0]generate_distributed_matrix: 368.78 [ms]
[OGL LOG][Proc: 0]init_precond: 0.039 [ms]
[OGL LOG][Proc: 0]generate_solver: 0.002 [ms]
[OGL LOG][Proc: 0]solve: 24176.5 [ms]
[OGL LOG][Proc: 0]copy_x_back: 118.124 [ms]
[OGL LOG][lduLduBase.H:380] 
Statistics:
	Time per iteration: 7796 [mu s]
	Time per iteration and DOF: 0.121813 [ns]
	Retrieve results bandwith 2.167000 [GByte/s]
nonecudaGKOCG:  Solving for p, Initial residual = 0.499207, Final residual = 9.28321e-05, No Iterations 3101
linear solve p 25701215
time step continuity errors : sum local = 2.2972e-10, global = -1.2206e-23, cumulative = -5.01181e-23
ExecutionTime = 2842.26 s  ClockTime = 2847 s

Time = 0.0001

Courant Number mean: 0.00220839 max: 0.0903158
DILUPBiCGStab:  Solving for Ux, Initial residual = 0.0436879, Final residual = 5.80146e-05, No Iterations 5
DILUPBiCGStab:  Solving for Uy, Initial residual = 0.0871936, Final residual = 4.73197e-05, No Iterations 5
DILUPBiCGStab:  Solving for Uz, Initial residual = 0.132318, Final residual = 0.000243208, No Iterations 5
linear solve U 42176914
[OGL LOG][Proc: 0]global_index_init: 0.007 [ms]
[OGL LOG][Proc: 0]global_index_init: 0 [ms]
[OGL LOG][Proc: 0]update_host_matrix_data: 795.378 [ms]
[OGL LOG][Proc: 0]gather_global_matrix: 0 [ms]
[OGL LOG][Proc: 0]generate_distributed_matrix: 369.282 [ms]
[OGL LOG][Proc: 0]init_precond: 0.034 [ms]
[OGL LOG][Proc: 0]generate_solver: 0.002 [ms]
[OGL LOG][Proc: 0]solve: 24148.5 [ms]
[OGL LOG][Proc: 0]copy_x_back: 117.854 [ms]
[OGL LOG][lduLduBase.H:380] 
Statistics:
	Time per iteration: 7787 [mu s]
	Time per iteration and DOF: 0.121672 [ns]
	Retrieve results bandwith 2.172000 [GByte/s]
nonecudaGKOCG:  Solving for p, Initial residual = 0.319205, Final residual = 6.30429e-05, No Iterations 3101
linear solve p 25711484
time step continuity errors : sum local = 1.35482e-10, global = 1.43166e-23, cumulative = -3.58016e-23
[OGL LOG][Proc: 0]global_index_init: 0.007 [ms]
[OGL LOG][Proc: 0]global_index_init: 0 [ms]
[OGL LOG][Proc: 0]update_host_matrix_data: 797.443 [ms]
[OGL LOG][Proc: 0]gather_global_matrix: 0 [ms]
[OGL LOG][Proc: 0]generate_distributed_matrix: 373.177 [ms]
[OGL LOG][Proc: 0]init_precond: 0.04 [ms]
[OGL LOG][Proc: 0]generate_solver: 0.002 [ms]
[OGL LOG][Proc: 0]solve: 24181.7 [ms]
[OGL LOG][Proc: 0]copy_x_back: 117.985 [ms]
[OGL LOG][lduLduBase.H:380] 
Statistics:
	Time per iteration: 7798 [mu s]
	Time per iteration and DOF: 0.121844 [ns]
	Retrieve results bandwith 2.169000 [GByte/s]
nonecudaGKOCG:  Solving for p, Initial residual = 0.264662, Final residual = 5.47939e-05, No Iterations 3101
linear solve p 25711356
time step continuity errors : sum local = 1.1863e-10, global = 1.05723e-23, cumulative = -2.52293e-23
ExecutionTime = 2965.79 s  ClockTime = 2971 s

Time = 0.000125

Courant Number mean: 0.0025542 max: 0.0919039
DILUPBiCGStab:  Solving for Ux, Initial residual = 0.0332565, Final residual = 4.28512e-05, No Iterations 5
DILUPBiCGStab:  Solving for Uy, Initial residual = 0.0629897, Final residual = 3.04487e-05, No Iterations 5
DILUPBiCGStab:  Solving for Uz, Initial residual = 0.0872519, Final residual = 0.000126399, No Iterations 5
linear solve U 42209030
[OGL LOG][Proc: 0]global_index_init: 0.008 [ms]
[OGL LOG][Proc: 0]global_index_init: 0 [ms]
[OGL LOG][Proc: 0]update_host_matrix_data: 797.984 [ms]
[OGL LOG][Proc: 0]gather_global_matrix: 0 [ms]
[OGL LOG][Proc: 0]generate_distributed_matrix: 370.239 [ms]
[OGL LOG][Proc: 0]init_precond: 0.035 [ms]
[OGL LOG][Proc: 0]generate_solver: 0.002 [ms]
[OGL LOG][Proc: 0]solve: 24175.4 [ms]
[OGL LOG][Proc: 0]copy_x_back: 118.721 [ms]
[OGL LOG][lduLduBase.H:380] 
Statistics:
	Time per iteration: 7795 [mu s]
	Time per iteration and DOF: 0.121797 [ns]
	Retrieve results bandwith 2.156000 [GByte/s]
nonecudaGKOCG:  Solving for p, Initial residual = 0.213417, Final residual = 5.89449e-05, No Iterations 3101
linear solve p 25770213
time step continuity errors : sum local = 1.12355e-10, global = 7.78199e-23, cumulative = 5.25907e-23
[OGL LOG][Proc: 0]global_index_init: 0.007 [ms]
[OGL LOG][Proc: 0]global_index_init: 0 [ms]
[OGL LOG][Proc: 0]update_host_matrix_data: 797.195 [ms]
[OGL LOG][Proc: 0]gather_global_matrix: 0 [ms]
[OGL LOG][Proc: 0]generate_distributed_matrix: 370.299 [ms]
[OGL LOG][Proc: 0]init_precond: 0.037 [ms]
[OGL LOG][Proc: 0]generate_solver: 0.002 [ms]
[OGL LOG][Proc: 0]solve: 24181.1 [ms]
[OGL LOG][Proc: 0]copy_x_back: 118.404 [ms]
[OGL LOG][lduLduBase.H:380] 
Statistics:
	Time per iteration: 7797 [mu s]
	Time per iteration and DOF: 0.121828 [ns]
	Retrieve results bandwith 2.162000 [GByte/s]
nonecudaGKOCG:  Solving for p, Initial residual = 0.179589, Final residual = 5.39084e-05, No Iterations 3101
linear solve p 25707561
time step continuity errors : sum local = 1.02348e-10, global = -1.91714e-23, cumulative = 3.34192e-23
ExecutionTime = 3089.46 s  ClockTime = 3094 s

Time = 0.00015

Courant Number mean: 0.00284943 max: 0.0928887
DILUPBiCGStab:  Solving for Ux, Initial residual = 0.0270443, Final residual = 2.87839e-05, No Iterations 5
DILUPBiCGStab:  Solving for Uy, Initial residual = 0.0494907, Final residual = 1.18922e-05, No Iterations 5
DILUPBiCGStab:  Solving for Uz, Initial residual = 0.0763754, Final residual = 8.8947e-05, No Iterations 5
linear solve U 42200059
[OGL LOG][Proc: 0]global_index_init: 0.009 [ms]
[OGL LOG][Proc: 0]global_index_init: 0.001 [ms]
[OGL LOG][Proc: 0]update_host_matrix_data: 794.757 [ms]
[OGL LOG][Proc: 0]gather_global_matrix: 0 [ms]
[OGL LOG][Proc: 0]generate_distributed_matrix: 367.84 [ms]
[OGL LOG][Proc: 0]init_precond: 0.041 [ms]
[OGL LOG][Proc: 0]generate_solver: 0.002 [ms]
[OGL LOG][Proc: 0]solve: 24222.5 [ms]
[OGL LOG][Proc: 0]copy_x_back: 117.594 [ms]
[OGL LOG][lduLduBase.H:380] 
Statistics:
	Time per iteration: 7811 [mu s]
	Time per iteration and DOF: 0.122047 [ns]
	Retrieve results bandwith 2.176000 [GByte/s]
nonecudaGKOCG:  Solving for p, Initial residual = 0.126847, Final residual = 2.89304e-05, No Iterations 3101
linear solve p 25783027
time step continuity errors : sum local = 5.34341e-11, global = 5.06751e-23, cumulative = 8.40943e-23
[OGL LOG][Proc: 0]global_index_init: 0.006 [ms]
[OGL LOG][Proc: 0]global_index_init: 0 [ms]
[OGL LOG][Proc: 0]update_host_matrix_data: 796.739 [ms]
[OGL LOG][Proc: 0]gather_global_matrix: 0 [ms]
[OGL LOG][Proc: 0]generate_distributed_matrix: 369.569 [ms]
[OGL LOG][Proc: 0]init_precond: 0.04 [ms]
[OGL LOG][Proc: 0]generate_solver: 0.003 [ms]
[OGL LOG][Proc: 0]solve: 23278.5 [ms]
[OGL LOG][Proc: 0]copy_x_back: 118.609 [ms]
[OGL LOG][lduLduBase.H:380] 
Statistics:
	Time per iteration: 7819 [mu s]
	Time per iteration and DOF: 0.122172 [ns]
	Retrieve results bandwith 2.158000 [GByte/s]
nonecudaGKOCG:  Solving for p, Initial residual = 0.104362, Final residual = 9.32073e-05, No Iterations 2977
linear solve p 24804101
time step continuity errors : sum local = 1.72375e-10, global = -4.70702e-23, cumulative = 3.70241e-23
ExecutionTime = 3212.18 s  ClockTime = 3217 s

Time = 0.000175

Courant Number mean: 0.00310991 max: 0.0935747
DILUPBiCGStab:  Solving for Ux, Initial residual = 0.0228857, Final residual = 2.10068e-05, No Iterations 5
DILUPBiCGStab:  Solving for Uy, Initial residual = 0.0407467, Final residual = 1.11251e-05, No Iterations 5
DILUPBiCGStab:  Solving for Uz, Initial residual = 0.0653554, Final residual = 5.67316e-05, No Iterations 5
linear solve U 42219326
[OGL LOG][Proc: 0]global_index_init: 0.006 [ms]
[OGL LOG][Proc: 0]global_index_init: 0 [ms]
[OGL LOG][Proc: 0]update_host_matrix_data: 797.219 [ms]
[OGL LOG][Proc: 0]gather_global_matrix: 0 [ms]
[OGL LOG][Proc: 0]generate_distributed_matrix: 369.992 [ms]
[OGL LOG][Proc: 0]init_precond: 0.035 [ms]
[OGL LOG][Proc: 0]generate_solver: 0.002 [ms]
[OGL LOG][Proc: 0]solve: 24110.6 [ms]
[OGL LOG][Proc: 0]copy_x_back: 118.834 [ms]
[OGL LOG][lduLduBase.H:380] 
Statistics:
	Time per iteration: 7790 [mu s]
	Time per iteration and DOF: 0.121719 [ns]
	Retrieve results bandwith 2.154000 [GByte/s]
[...]
nonecudaGKOCG:  Solving for p, Initial residual = 0.0101633, Final residual = 3.58839e-05, No Iterations 701
linear solve p 153254
time step continuity errors : sum local = 8.73722e-10, global = -7.20211e-22, cumulative = -4.16098e-21
[OGL LOG][Proc: 0]global_index_init: 0.006 [ms]
[OGL LOG][Proc: 0]global_index_init: 0.001 [ms]
[OGL LOG][Proc: 0]update_host_matrix_data: 6.447 [ms]
[OGL LOG][Proc: 0]gather_global_matrix: 0 [ms]
[OGL LOG][Proc: 0]generate_distributed_matrix: 9.491 [ms]
[OGL LOG][Proc: 0]init_precond: 0.026 [ms]
[OGL LOG][Proc: 0]generate_solver: 0.001 [ms]
[OGL LOG][Proc: 0]solve: 126.83 [ms]
[OGL LOG][Proc: 0]copy_x_back: 0.617 [ms]
[OGL LOG][lduLduBase.H:380] 
Statistics:
	Time per iteration: 188 [mu s]
	Time per iteration and DOF: 0.188000 [ns]
	Retrieve results bandwith 3.241000 [GByte/s]
nonecudaGKOCG:  Solving for p, Initial residual = 0.00823078, Final residual = 9.82179e-05, No Iterations 673
linear solve p 146371
time step continuity errors : sum local = 2.39584e-09, global = 5.54212e-22, cumulative = -3.60677e-21
ExecutionTime = 11.91 s  ClockTime = 12 s

Time = 0.0012

Courant Number mean: 0.00722379 max: 0.0900356
DILUPBiCGStab:  Solving for Ux, Initial residual = 0.0147484, Final residual = 3.82109e-08, No Iterations 5
DILUPBiCGStab:  Solving for Uy, Initial residual = 0.0202882, Final residual = 1.15587e-08, No Iterations 5
DILUPBiCGStab:  Solving for Uz, Initial residual = 0.0381764, Final residual = 2.7301e-08, No Iterations 5
linear solve U 275331
[OGL LOG][Proc: 0]global_index_init: 0.004 [ms]
[OGL LOG][Proc: 0]global_index_init: 0.001 [ms]
[OGL LOG][Proc: 0]update_host_matrix_data: 6.204 [ms]
[OGL LOG][Proc: 0]gather_global_matrix: 0 [ms]
[OGL LOG][Proc: 0]generate_distributed_matrix: 9.337 [ms]
[OGL LOG][Proc: 0]init_precond: 0.024 [ms]
[OGL LOG][Proc: 0]generate_solver: 0.002 [ms]
[OGL LOG][Proc: 0]solve: 127.721 [ms]
[OGL LOG][Proc: 0]copy_x_back: 0.609 [ms]
[OGL LOG][lduLduBase.H:380] 
Statistics:
	Time per iteration: 188 [mu s]
	Time per iteration and DOF: 0.188000 [ns]
	Retrieve results bandwith 3.284000 [GByte/s]
nonecudaGKOCG:  Solving for p, Initial residual = 0.00901389, Final residual = 9.21201e-05, No Iterations 677
linear solve p 147721
time step continuity errors : sum local = 2.25012e-09, global = -1.88658e-21, cumulative = -5.49336e-21
[OGL LOG][Proc: 0]global_index_init: 0.005 [ms]
[OGL LOG][Proc: 0]global_index_init: 0.001 [ms]
[OGL LOG][Proc: 0]update_host_matrix_data: 6.374 [ms]
[OGL LOG][Proc: 0]gather_global_matrix: 0 [ms]
[OGL LOG][Proc: 0]generate_distributed_matrix: 9.139 [ms]
[OGL LOG][Proc: 0]init_precond: 0.026 [ms]
[OGL LOG][Proc: 0]generate_solver: 0.001 [ms]
[OGL LOG][Proc: 0]solve: 125.523 [ms]
[OGL LOG][Proc: 0]copy_x_back: 0.619 [ms]
[OGL LOG][lduLduBase.H:380] 
Statistics:
	Time per iteration: 185 [mu s]
	Time per iteration and DOF: 0.185000 [ns]
	Retrieve results bandwith 3.231000 [GByte/s]
nonecudaGKOCG:  Solving for p, Initial residual = 0.00733618, Final residual = 7.57805e-05, No Iterations 676
linear solve p 144625
time step continuity errors : sum local = 1.85367e-09, global = -9.17369e-22, cumulative = -6.41072e-21
ExecutionTime = 12.65 s  ClockTime = 13 s

Time = 0.0013

Courant Number mean: 0.00748302 max: 0.0904387
DILUPBiCGStab:  Solving for Ux, Initial residual = 0.0134671, Final residual = 3.45606e-08, No Iterations 5
DILUPBiCGStab:  Solving for Uy, Initial residual = 0.0184652, Final residual = 9.97588e-09, No Iterations 5
DILUPBiCGStab:  Solving for Uz, Initial residual = 0.035048, Final residual = 2.42782e-08, No Iterations 5
linear solve U 275727
[OGL LOG][Proc: 0]global_index_init: 0.004 [ms]
[OGL LOG][Proc: 0]global_index_init: 0.001 [ms]
[OGL LOG][Proc: 0]update_host_matrix_data: 6.405 [ms]
[OGL LOG][Proc: 0]gather_global_matrix: 0 [ms]
[OGL LOG][Proc: 0]generate_distributed_matrix: 9.019 [ms]
[OGL LOG][Proc: 0]init_precond: 0.035 [ms]
[OGL LOG][Proc: 0]generate_solver: 0.002 [ms]
[OGL LOG][Proc: 0]solve: 127.89 [ms]
[OGL LOG][Proc: 0]copy_x_back: 0.609 [ms]
[OGL LOG][lduLduBase.H:380] 
Statistics:
	Time per iteration: 189 [mu s]
	Time per iteration and DOF: 0.189000 [ns]
	Retrieve results bandwith 3.284000 [GByte/s]
nonecudaGKOCG:  Solving for p, Initial residual = 0.00804865, Final residual = 8.88772e-05, No Iterations 676
linear solve p 147308
time step continuity errors : sum local = 2.17662e-09, global = -3.95695e-22, cumulative = -6.80642e-21
[OGL LOG][Proc: 0]global_index_init: 0.005 [ms]
[OGL LOG][Proc: 0]global_index_init: 0 [ms]
[OGL LOG][Proc: 0]update_host_matrix_data: 6.465 [ms]
[OGL LOG][Proc: 0]gather_global_matrix: 0 [ms]
[OGL LOG][Proc: 0]generate_distributed_matrix: 9.524 [ms]
[OGL LOG][Proc: 0]init_precond: 0.03 [ms]
[OGL LOG][Proc: 0]generate_solver: 0.001 [ms]
[OGL LOG][Proc: 0]solve: 134.584 [ms]
[OGL LOG][Proc: 0]copy_x_back: 0.606 [ms]
[OGL LOG][lduLduBase.H:380] 
Statistics:
	Time per iteration: 199 [mu s]
	Time per iteration and DOF: 0.199000 [ns]
	Retrieve results bandwith 3.300000 [GByte/s]
nonecudaGKOCG:  Solving for p, Initial residual = 0.00657133, Final residual = 6.15543e-05, No Iterations 676
linear solve p 154429
time step continuity errors : sum local = 1.50937e-09, global = 1.24443e-22, cumulative = -6.68198e-21
ExecutionTime = 13.4 s  ClockTime = 14 s

Time = 0.0014

Courant Number mean: 0.00772783 max: 0.0907903
DILUPBiCGStab:  Solving for Ux, Initial residual = 0.0123794, Final residual = 3.14356e-08, No Iterations 5
DILUPBiCGStab:  Solving for Uy, Initial residual = 0.0169325, Final residual = 8.75867e-09, No Iterations 5
DILUPBiCGStab:  Solving for Uz, Initial residual = 0.0323887, Final residual = 2.19515e-08, No Iterations 5
linear solve U 273431
[OGL LOG][Proc: 0]global_index_init: 0.005 [ms]
[OGL LOG][Proc: 0]global_index_init: 0 [ms]
[OGL LOG][Proc: 0]update_host_matrix_data: 6.169 [ms]
[OGL LOG][Proc: 0]gather_global_matrix: 0 [ms]
[OGL LOG][Proc: 0]generate_distributed_matrix: 9.465 [ms]
[OGL LOG][Proc: 0]init_precond: 0.026 [ms]
[OGL LOG][Proc: 0]generate_solver: 0.002 [ms]
[OGL LOG][Proc: 0]solve: 129.622 [ms]
[OGL LOG][Proc: 0]copy_x_back: 0.595 [ms]
[OGL LOG][lduLduBase.H:380] 
Statistics:
	Time per iteration: 191 [mu s]
	Time per iteration and DOF: 0.191000 [ns]
	Retrieve results bandwith 3.361000 [GByte/s]
nonecudaGKOCG:  Solving for p, Initial residual = 0.00719107, Final residual = 8.14785e-05, No Iterations 676
linear solve p 149055
time step continuity errors : sum local = 1.99991e-09, global = 1.5087e-22, cumulative = -6.53111e-21
[OGL LOG][Proc: 0]global_index_init: 0.005 [ms]
[OGL LOG][Proc: 0]global_index_init: 0.001 [ms]
[OGL LOG][Proc: 0]update_host_matrix_data: 6.336 [ms]
[OGL LOG][Proc: 0]gather_global_matrix: 0 [ms]
[OGL LOG][Proc: 0]generate_distributed_matrix: 9.455 [ms]
[OGL LOG][Proc: 0]init_precond: 0.034 [ms]
[OGL LOG][Proc: 0]generate_solver: 0.002 [ms]
[OGL LOG][Proc: 0]solve: 129.954 [ms]
[OGL LOG][Proc: 0]copy_x_back: 0.614 [ms]
[OGL LOG][lduLduBase.H:380] 
Statistics:
	Time per iteration: 192 [mu s]
	Time per iteration and DOF: 0.192000 [ns]
	Retrieve results bandwith 3.257000 [GByte/s]
nonecudaGKOCG:  Solving for p, Initial residual = 0.00589801, Final residual = 5.4301e-05, No Iterations 676
linear solve p 149366
time step continuity errors : sum local = 1.33433e-09, global = 4.3586e-23, cumulative = -6.48752e-21
ExecutionTime = 14.13 s  ClockTime = 15 s

Time = 0.0015

Courant Number mean: 0.00795861 max: 0.0911006
DILUPBiCGStab:  Solving for Ux, Initial residual = 0.011447, Final residual = 2.87268e-08, No Iterations 5
DILUPBiCGStab:  Solving for Uy, Initial residual = 0.0156259, Final residual = 7.75724e-09, No Iterations 5
DILUPBiCGStab:  Solving for Uz, Initial residual = 0.0300847, Final residual = 2.0157e-08, No Iterations 5
linear solve U 273821
[OGL LOG][Proc: 0]global_index_init: 0.005 [ms]
[OGL LOG][Proc: 0]global_index_init: 0 [ms]
[OGL LOG][Proc: 0]update_host_matrix_data: 6.391 [ms]
[OGL LOG][Proc: 0]gather_global_matrix: 0 [ms]
[OGL LOG][Proc: 0]generate_distributed_matrix: 9.696 [ms]
[OGL LOG][Proc: 0]init_precond: 0.034 [ms]
[OGL LOG][Proc: 0]generate_solver: 0.002 [ms]
[OGL LOG][Proc: 0]solve: 129.693 [ms]
[OGL LOG][Proc: 0]copy_x_back: 0.602 [ms]
[OGL LOG][lduLduBase.H:380] 
Statistics:
	Time per iteration: 191 [mu s]
	Time per iteration and DOF: 0.191000 [ns]
	Retrieve results bandwith 3.322000 [GByte/s]
nonecudaGKOCG:  Solving for p, Initial residual = 0.00650175, Final residual = 7.36649e-05, No Iterations 676
linear solve p 149354
time step continuity errors : sum local = 1.81179e-09, global = -3.05831e-22, cumulative = -6.79335e-21
[OGL LOG][Proc: 0]global_index_init: 0.005 [ms]
[OGL LOG][Proc: 0]global_index_init: 0.001 [ms]
[OGL LOG][Proc: 0]update_host_matrix_data: 6.398 [ms]
[OGL LOG][Proc: 0]gather_global_matrix: 0 [ms]
[OGL LOG][Proc: 0]generate_distributed_matrix: 9.542 [ms]
[OGL LOG][Proc: 0]init_precond: 0.026 [ms]
[OGL LOG][Proc: 0]generate_solver: 0.001 [ms]
[OGL LOG][Proc: 0]solve: 106.123 [ms]
[OGL LOG][Proc: 0]copy_x_back: 0.605 [ms]
[OGL LOG][lduLduBase.H:380] 
Statistics:
	Time per iteration: 196 [mu s]
	Time per iteration and DOF: 0.196000 [ns]
	Retrieve results bandwith 3.305000 [GByte/s]
nonecudaGKOCG:  Solving for p, Initial residual = 0.00534428, Final residual = 9.88748e-05, No Iterations 541
linear solve p 125883
time step continuity errors : sum local = 2.46993e-09, global = -2.36749e-22, cumulative = -7.0301e-21
ExecutionTime = 14.85 s  ClockTime = 15 s

Time = 0.0016

Courant Number mean: 0.00817648 max: 0.091377
DILUPBiCGStab:  Solving for Ux, Initial residual = 0.0106401, Final residual = 2.63438e-08, No Iterations 5
DILUPBiCGStab:  Solving for Uy, Initial residual = 0.0145001, Final residual = 6.91862e-09, No Iterations 5
DILUPBiCGStab:  Solving for Uz, Initial residual = 0.0280947, Final residual = 1.98373e-08, No Iterations 5
linear solve U 280341
[OGL LOG][Proc: 0]global_index_init: 0.005 [ms]
[OGL LOG][Proc: 0]global_index_init: 0.001 [ms]
[OGL LOG][Proc: 0]update_host_matrix_data: 6.302 [ms]
[OGL LOG][Proc: 0]gather_global_matrix: 0 [ms]
[OGL LOG][Proc: 0]generate_distributed_matrix: 9.398 [ms]
[OGL LOG][Proc: 0]init_precond: 0.027 [ms]
[OGL LOG][Proc: 0]generate_solver: 0.001 [ms]
[OGL LOG][Proc: 0]solve: 88.23 [ms]
[OGL LOG][Proc: 0]copy_x_back: 0.623 [ms]
[OGL LOG][lduLduBase.H:380] 
Statistics:
	Time per iteration: 199 [mu s]
	Time per iteration and DOF: 0.199000 [ns]
	Retrieve results bandwith 3.210000 [GByte/s]
nonecudaGKOCG:  Solving for p, Initial residual = 0.00596831, Final residual = 1.06947e-05, No Iterations 442
linear solve p 107623
time step continuity errors : sum local = 2.92385e-10, global = 7.33214e-22, cumulative = -6.29689e-21
[OGL LOG][Proc: 0]global_index_init: 0.004 [ms]
[OGL LOG][Proc: 0]global_index_init: 0.001 [ms]
[OGL LOG][Proc: 0]update_host_matrix_data: 6.361 [ms]
[OGL LOG][Proc: 0]gather_global_matrix: 0 [ms]
[OGL LOG][Proc: 0]generate_distributed_matrix: 9.775 [ms]
[OGL LOG][Proc: 0]init_precond: 0.027 [ms]
[OGL LOG][Proc: 0]generate_solver: 0.001 [ms]
[OGL LOG][Proc: 0]solve: 74.655 [ms]
[OGL LOG][Proc: 0]copy_x_back: 0.623 [ms]
[OGL LOG][lduLduBase.H:380] 
Statistics:
	Time per iteration: 208 [mu s]
	Time per iteration and DOF: 0.208000 [ns]
	Retrieve results bandwith 3.210000 [GByte/s]
nonecudaGKOCG:  Solving for p, Initial residual = 0.0048652, Final residual = 1.40393e-05, No Iterations 358
linear solve p 94428
time step continuity errors : sum local = 3.86677e-10, global = -3.52312e-22, cumulative = -6.6492e-21
ExecutionTime = 15.51 s  ClockTime = 16 s

Time = 0.0017

Courant Number mean: 0.00838249 max: 0.0916252
DILUPBiCGStab:  Solving for Ux, Initial residual = 0.00993241, Final residual = 2.42384e-08, No Iterations 5
DILUPBiCGStab:  Solving for Uy, Initial residual = 0.0135174, Final residual = 6.24457e-09, No Iterations 5
DILUPBiCGStab:  Solving for Uz, Initial residual = 0.026359, Final residual = 1.73226e-08, No Iterations 5
linear solve U 274595
[OGL LOG][Proc: 0]global_index_init: 0.004 [ms]
[OGL LOG][Proc: 0]global_index_init: 0.001 [ms]
[OGL LOG][Proc: 0]update_host_matrix_data: 6.287 [ms]
[OGL LOG][Proc: 0]gather_global_matrix: 0 [ms]
[OGL LOG][Proc: 0]generate_distributed_matrix: 9.545 [ms]
[OGL LOG][Proc: 0]init_precond: 0.025 [ms]
[OGL LOG][Proc: 0]generate_solver: 0.001 [ms]
[OGL LOG][Proc: 0]solve: 64.072 [ms]
[OGL LOG][Proc: 0]copy_x_back: 0.618 [ms]
[OGL LOG][lduLduBase.H:380] 
Statistics:
	Time per iteration: 217 [mu s]
	Time per iteration and DOF: 0.217000 [ns]
	Retrieve results bandwith 3.236000 [GByte/s]
nonecudaGKOCG:  Solving for p, Initial residual = 0.00536026, Final residual = 3.24539e-05, No Iterations 295
linear solve p 83549
time step continuity errors : sum local = 8.11859e-10, global = -1.58172e-21, cumulative = -8.23092e-21
[OGL LOG][Proc: 0]global_index_init: 0.004 [ms]
[OGL LOG][Proc: 0]global_index_init: 0 [ms]
[OGL LOG][Proc: 0]update_host_matrix_data: 6.314 [ms]
[OGL LOG][Proc: 0]gather_global_matrix: 0 [ms]
[OGL LOG][Proc: 0]generate_distributed_matrix: 9.409 [ms]
[OGL LOG][Proc: 0]init_precond: 0.025 [ms]
[OGL LOG][Proc: 0]generate_solver: 0.001 [ms]
[OGL LOG][Proc: 0]solve: 59.597 [ms]
[OGL LOG][Proc: 0]copy_x_back: 0.631 [ms]
[OGL LOG][lduLduBase.H:380] 
Statistics:
	Time per iteration: 224 [mu s]
	Time per iteration and DOF: 0.224000 [ns]
	Retrieve results bandwith 3.169000 [GByte/s]
nonecudaGKOCG:  Solving for p, Initial residual = 0.00439745, Final residual = 7.70959e-05, No Iterations 265
linear solve p 78919
time step continuity errors : sum local = 1.93493e-09, global = -4.42556e-22, cumulative = -8.67348e-21
ExecutionTime = 16.12 s  ClockTime = 17 s

Time = 0.0018

Courant Number mean: 0.00857955 max: 0.0918497
DILUPBiCGStab:  Solving for Ux, Initial residual = 0.00931084, Final residual = 2.23694e-08, No Iterations 5
DILUPBiCGStab:  Solving for Uy, Initial residual = 0.0126548, Final residual = 5.65997e-09, No Iterations 5
DILUPBiCGStab:  Solving for Uz, Initial residual = 0.024771, Final residual = 1.65917e-08, No Iterations 5
linear solve U 274432
[OGL LOG][Proc: 0]global_index_init: 0.005 [ms]
[OGL LOG][Proc: 0]global_index_init: 0.001 [ms]
[OGL LOG][Proc: 0]update_host_matrix_data: 6.308 [ms]
[OGL LOG][Proc: 0]gather_global_matrix: 0 [ms]
[OGL LOG][Proc: 0]generate_distributed_matrix: 9.401 [ms]
[OGL LOG][Proc: 0]init_precond: 0.032 [ms]
[OGL LOG][Proc: 0]generate_solver: 0.002 [ms]
[OGL LOG][Proc: 0]solve: 61.321 [ms]
[OGL LOG][Proc: 0]copy_x_back: 0.656 [ms]
[OGL LOG][lduLduBase.H:380] 
Statistics:
	Time per iteration: 226 [mu s]
	Time per iteration and DOF: 0.226000 [ns]
	Retrieve results bandwith 3.048000 [GByte/s]
nonecudaGKOCG:  Solving for p, Initial residual = 0.00502504, Final residual = 7.15768e-05, No Iterations 271
linear solve p 80676
time step continuity errors : sum local = 1.77588e-09, global = -1.98643e-21, cumulative = -1.06599e-20
[OGL LOG][Proc: 0]global_index_init: 0.005 [ms]
[OGL LOG][Proc: 0]global_index_init: 0 [ms]
[OGL LOG][Proc: 0]update_host_matrix_data: 6.299 [ms]
[OGL LOG][Proc: 0]gather_global_matrix: 0 [ms]
[OGL LOG][Proc: 0]generate_distributed_matrix: 9.481 [ms]
[OGL LOG][Proc: 0]init_precond: 0.033 [ms]
[OGL LOG][Proc: 0]generate_solver: 0.002 [ms]
[OGL LOG][Proc: 0]solve: 59.953 [ms]
[OGL LOG][Proc: 0]copy_x_back: 0.63 [ms]
[OGL LOG][lduLduBase.H:380] 
Statistics:
	Time per iteration: 229 [mu s]
	Time per iteration and DOF: 0.229000 [ns]
	Retrieve results bandwith 3.174000 [GByte/s]
nonecudaGKOCG:  Solving for p, Initial residual = 0.0041345, Final residual = 8.75815e-05, No Iterations 261
linear solve p 79399
time step continuity errors : sum local = 2.19032e-09, global = -1.57132e-21, cumulative = -1.22312e-20
ExecutionTime = 16.73 s  ClockTime = 17 s

Time = 0.0019

Courant Number mean: 0.00876812 max: 0.092054
DILUPBiCGStab:  Solving for Ux, Initial residual = 0.00875808, Final residual = 2.07017e-08, No Iterations 5
DILUPBiCGStab:  Solving for Uy, Initial residual = 0.0118905, Final residual = 5.13341e-09, No Iterations 5
DILUPBiCGStab:  Solving for Uz, Initial residual = 0.0233606, Final residual = 1.56971e-08, No Iterations 5
linear solve U 274498
[OGL LOG][Proc: 0]global_index_init: 0.005 [ms]
[OGL LOG][Proc: 0]global_index_init: 0.001 [ms]
[OGL LOG][Proc: 0]update_host_matrix_data: 6.327 [ms]
[OGL LOG][Proc: 0]gather_global_matrix: 0 [ms]
[OGL LOG][Proc: 0]generate_distributed_matrix: 9.456 [ms]
[OGL LOG][Proc: 0]init_precond: 0.034 [ms]
[OGL LOG][Proc: 0]generate_solver: 0.002 [ms]
[OGL LOG][Proc: 0]solve: 61.685 [ms]
[OGL LOG][Proc: 0]copy_x_back: 0.607 [ms]
[OGL LOG][lduLduBase.H:380] 
Statistics:
	Time per iteration: 227 [mu s]
	Time per iteration and DOF: 0.227000 [ns]
	Retrieve results bandwith 3.294000 [GByte/s]
nonecudaGKOCG:  Solving for p, Initial residual = 0.00468707, Final residual = 6.96206e-05, No Iterations 271
linear solve p 80992
time step continuity errors : sum local = 1.72404e-09, global = -1.60744e-21, cumulative = -1.38387e-20
[OGL LOG][Proc: 0]global_index_init: 0.005 [ms]
[OGL LOG][Proc: 0]global_index_init: 0.001 [ms]
[OGL LOG][Proc: 0]update_host_matrix_data: 6.263 [ms]
[OGL LOG][Proc: 0]gather_global_matrix: 0 [ms]
[OGL LOG][Proc: 0]generate_distributed_matrix: 9.454 [ms]
[OGL LOG][Proc: 0]init_precond: 0.033 [ms]
[OGL LOG][Proc: 0]generate_solver: 0.002 [ms]
[OGL LOG][Proc: 0]solve: 60.153 [ms]
[OGL LOG][Proc: 0]copy_x_back: 0.638 [ms]
[OGL LOG][lduLduBase.H:380] 
Statistics:
	Time per iteration: 230 [mu s]
	Time per iteration and DOF: 0.230000 [ns]
	Retrieve results bandwith 3.134000 [GByte/s]
nonecudaGKOCG:  Solving for p, Initial residual = 0.00385961, Final residual = 8.15934e-05, No Iterations 261
linear solve p 79529
time step continuity errors : sum local = 2.0382e-09, global = -1.70631e-21, cumulative = -1.5545e-20
ExecutionTime = 17.32 s  ClockTime = 18 s

Time = 0.002

Courant Number mean: 0.00894849 max: 0.0922409
DILUPBiCGStab:  Solving for Ux, Initial residual = 0.0082609, Final residual = 1.92009e-08, No Iterations 5
DILUPBiCGStab:  Solving for Uy, Initial residual = 0.0112089, Final residual = 4.69136e-09, No Iterations 5
DILUPBiCGStab:  Solving for Uz, Initial residual = 0.0220945, Final residual = 1.48316e-08, No Iterations 5
linear solve U 274695
[OGL LOG][Proc: 0]global_index_init: 0.012 [ms]
[OGL LOG][Proc: 0]global_index_init: 0.001 [ms]
[OGL LOG][Proc: 0]update_host_matrix_data: 6.308 [ms]
[OGL LOG][Proc: 0]gather_global_matrix: 0 [ms]
[OGL LOG][Proc: 0]generate_distributed_matrix: 9.59 [ms]
[OGL LOG][Proc: 0]init_precond: 0.028 [ms]
[OGL LOG][Proc: 0]generate_solver: 0.002 [ms]
[OGL LOG][Proc: 0]solve: 59.523 [ms]
[OGL LOG][Proc: 0]copy_x_back: 0.657 [ms]
[OGL LOG][lduLduBase.H:380] 
Statistics:
	Time per iteration: 228 [mu s]
	Time per iteration and DOF: 0.228000 [ns]
	Retrieve results bandwith 3.044000 [GByte/s]
nonecudaGKOCG:  Solving for p, Initial residual = 0.00432834, Final residual = 9.40449e-05, No Iterations 261
linear solve p 79113
time step continuity errors : sum local = 2.33358e-09, global = -1.64305e-21, cumulative = -1.7188e-20
[OGL LOG][Proc: 0]global_index_init: 0.005 [ms]
[OGL LOG][Proc: 0]global_index_init: 0.001 [ms]
[OGL LOG][Proc: 0]update_host_matrix_data: 6.281 [ms]
[OGL LOG][Proc: 0]gather_global_matrix: 0 [ms]
[OGL LOG][Proc: 0]generate_distributed_matrix: 9.307 [ms]
[OGL LOG][Proc: 0]init_precond: 0.034 [ms]
[OGL LOG][Proc: 0]generate_solver: 0.002 [ms]
[OGL LOG][Proc: 0]solve: 60.197 [ms]
[OGL LOG][Proc: 0]copy_x_back: 0.622 [ms]
[OGL LOG][lduLduBase.H:380] 
Statistics:
	Time per iteration: 230 [mu s]
	Time per iteration and DOF: 0.230000 [ns]
	Retrieve results bandwith 3.215000 [GByte/s]
nonecudaGKOCG:  Solving for p, Initial residual = 0.00359961, Final residual = 6.89615e-05, No Iterations 261
linear solve p 79390
time step continuity errors : sum local = 1.72152e-09, global = -2.95083e-22, cumulative = -1.74831e-20
ExecutionTime = 17.93 s  ClockTime = 19 s

End

Finalising parallel run
================================================================================
