hash: 6491c4f675c623079f4e77516d7a5be7
/*---------------------------------------------------------------------------*\
| =========                 |                                                 |
| \\      /  F ield         | OpenFOAM: The Open Source CFD Toolbox           |
|  \\    /   O peration     | Version:  2112                                  |
|   \\  /    A nd           | Website:  www.openfoam.com                      |
|    \\/     M anipulation  |                                                 |
\*---------------------------------------------------------------------------*/
Build  : d44c8318f0-20220111 OPENFOAM=2112 version=v2112
Arch   : "LSB;label=32;scalar=64"
Exec   : icoFoam -parallel
Date   : Jun 29 2022
Time   : 01:08:56
Host   : hkn0802.localdomain
PID    : 3746608
I/O    : uncollated
Case   : /hkfs/work/workspace/scratch/eq4036-lidDrivenCavity/simple/mesh/500/matrix_solver/CG_NoPrecond_CUDA/mpiRank_gko/3/base
nProcs : 3
Hosts  :
(
    (hkn0802.localdomain 3)
)
Pstream initialized with:
    floatTransfer      : 0
    nProcsSimpleSum    : 0
    commsType          : nonBlocking
    polling iterations : 0
trapFpe: Floating point exception trapping enabled (FOAM_SIGFPE).
fileModificationChecking : Monitoring run-time modified files using timeStampMaster (fileModificationSkew 5, maxFileModificationPolls 20)
allowSystemOperations : Allowing user-supplied system call operations

// * * * * * * * * * * * * * * * * * * * * * * * * * * * * * * * * * * * * * //
Create time

Create mesh for time = 0


PISO: Operating solver in PISO mode

Reading transportProperties

Reading field p

Reading field U

Reading/calculating face flux field phi


Starting time loop

Time = 2e-05

Courant Number mean: 0 max: 0
DILUPBiCGStab:  Solving for Ux, Initial residual = 1, Final residual = 0.0023623, No Iterations 5
DILUPBiCGStab:  Solving for Uy:  solution singularity
DILUPBiCGStab:  Solving for Uz:  solution singularity
linear solve U 28762561
[OGL LOG][Proc: 0]global_index_init: 0.034 [ms]
[OGL LOG][Proc: 0]global_index_init: 0.002 [ms]
[OGL LOG][Proc: 0]init_host_sparsity_pattern: 4.83743e+06 [ms]
[OGL LOG][Proc: 0]update_host_matrix_data: 1087.34 [ms]
[OGL LOG][Proc: 0]convert_coo_to_csr: 3032.4 [ms]
[OGL LOG][lduLduBase.H:153] Initialising OGL
	Version:  484b851
	branch: HEAD 
	Ginkgo version: 1.5.0(develop)
	MPI is GPU aware: 1)
	Forces host buffer based communication: 1
[OGL LOG][Proc: 0]gather_global_matrix: 0.003 [ms]
[OGL LOG][Proc: 0]generate_distributed_matrix: 515.855 [ms]
[OGL LOG][Proc: 0]init_precond: 0.381 [ms]
[OGL LOG][Proc: 0]generate_solver: 0.031 [ms]
[OGL LOG][Proc: 0]solve: 54808.6 [ms]
[OGL LOG][Proc: 0]copy_x_back: 116.551 [ms]
[OGL LOG][lduLduBase.H:380] 
Statistics:
	Time per iteration: 13335 [mu s]
	Time per iteration and DOF: 0.106680 [ns]
	Retrieve results bandwith 2.859000 [GByte/s]
nonecudaGKOCG:  Solving for p, Initial residual = 1, Final residual = 9.96842e-05, No Iterations 4110
linear solve p 1053377912
time step continuity errors : sum local = 1.74078e-10, global = 1.6254e-22, cumulative = 1.6254e-22
[OGL LOG][Proc: 0]global_index_init: 0.031 [ms]
[OGL LOG][Proc: 0]global_index_init: 0.002 [ms]
[OGL LOG][Proc: 0]update_host_matrix_data: 1105.73 [ms]
[OGL LOG][Proc: 0]gather_global_matrix: 0 [ms]
[OGL LOG][Proc: 0]generate_distributed_matrix: 551.786 [ms]
[OGL LOG][Proc: 0]init_precond: 0.046 [ms]
[OGL LOG][Proc: 0]generate_solver: 0.002 [ms]
[OGL LOG][Proc: 0]solve: 51830.2 [ms]
[OGL LOG][Proc: 0]copy_x_back: 165.636 [ms]
[OGL LOG][lduLduBase.H:380] 
Statistics:
	Time per iteration: 12638 [mu s]
	Time per iteration and DOF: 0.101104 [ns]
	Retrieve results bandwith 2.012000 [GByte/s]
nonecudaGKOCG:  Solving for p, Initial residual = 0.737046, Final residual = 7.79467e-05, No Iterations 4101
linear solve p 53992714
time step continuity errors : sum local = 1.79763e-10, global = 2.60833e-23, cumulative = 1.88623e-22
ExecutionTime = 9893.55 s  ClockTime = 9910 s

Time = 4e-05

Courant Number mean: 0.00105537 max: 0.0776053
DILUPBiCGStab:  Solving for Ux, Initial residual = 0.150273, Final residual = 0.00145739, No Iterations 5
DILUPBiCGStab:  Solving for Uy, Initial residual = 0.356115, Final residual = 0.00135558, No Iterations 5
DILUPBiCGStab:  Solving for Uz, Initial residual = 0.997521, Final residual = 0.00664179, No Iterations 5
linear solve U 58087111
[OGL LOG][Proc: 0]global_index_init: 0.007 [ms]
[OGL LOG][Proc: 0]global_index_init: 0.001 [ms]
[OGL LOG][Proc: 0]update_host_matrix_data: 1106.11 [ms]
[OGL LOG][Proc: 0]gather_global_matrix: 0 [ms]
[OGL LOG][Proc: 0]generate_distributed_matrix: 546.231 [ms]
[OGL LOG][Proc: 0]init_precond: 0.039 [ms]
[OGL LOG][Proc: 0]generate_solver: 0.002 [ms]
[OGL LOG][Proc: 0]solve: 52043.6 [ms]
[OGL LOG][Proc: 0]copy_x_back: 166.532 [ms]
[OGL LOG][lduLduBase.H:380] 
Statistics:
	Time per iteration: 12690 [mu s]
	Time per iteration and DOF: 0.101520 [ns]
	Retrieve results bandwith 2.001000 [GByte/s]
nonecudaGKOCG:  Solving for p, Initial residual = 0.704048, Final residual = 4.47325e-05, No Iterations 4101
linear solve p 54232160
time step continuity errors : sum local = 1.19543e-10, global = 4.86295e-23, cumulative = 2.37253e-22
[OGL LOG][Proc: 0]global_index_init: 0.008 [ms]
[OGL LOG][Proc: 0]global_index_init: 0.001 [ms]
[OGL LOG][Proc: 0]update_host_matrix_data: 1107.28 [ms]
[OGL LOG][Proc: 0]gather_global_matrix: 0 [ms]
[OGL LOG][Proc: 0]generate_distributed_matrix: 535.153 [ms]
[OGL LOG][Proc: 0]init_precond: 0.04 [ms]
[OGL LOG][Proc: 0]generate_solver: 0.003 [ms]
[OGL LOG][Proc: 0]solve: 52263.9 [ms]
[OGL LOG][Proc: 0]copy_x_back: 166.083 [ms]
[OGL LOG][lduLduBase.H:380] 
Statistics:
	Time per iteration: 12744 [mu s]
	Time per iteration and DOF: 0.101952 [ns]
	Retrieve results bandwith 2.007000 [GByte/s]
nonecudaGKOCG:  Solving for p, Initial residual = 0.636873, Final residual = 4.06048e-05, No Iterations 4101
linear solve p 54417608
time step continuity errors : sum local = 1.10177e-10, global = 3.70664e-23, cumulative = 2.74319e-22
ExecutionTime = 10098.7 s  ClockTime = 10117 s

Time = 6e-05

Courant Number mean: 0.00160662 max: 0.0884747
DILUPBiCGStab:  Solving for Ux, Initial residual = 0.0623883, Final residual = 0.000387042, No Iterations 5
DILUPBiCGStab:  Solving for Uy, Initial residual = 0.140302, Final residual = 0.000339056, No Iterations 5
DILUPBiCGStab:  Solving for Uz, Initial residual = 0.660838, Final residual = 0.00528671, No Iterations 5
linear solve U 58180955
[OGL LOG][Proc: 0]global_index_init: 0.007 [ms]
[OGL LOG][Proc: 0]global_index_init: 0.001 [ms]
[OGL LOG][Proc: 0]update_host_matrix_data: 1107.18 [ms]
[OGL LOG][Proc: 0]gather_global_matrix: 0 [ms]
[OGL LOG][Proc: 0]generate_distributed_matrix: 572.026 [ms]
[OGL LOG][Proc: 0]init_precond: 0.036 [ms]
[OGL LOG][Proc: 0]generate_solver: 0.002 [ms]
[OGL LOG][Proc: 0]solve: 51401.2 [ms]
[OGL LOG][Proc: 0]copy_x_back: 165.356 [ms]
[OGL LOG][lduLduBase.H:380] 
Statistics:
	Time per iteration: 13055 [mu s]
	Time per iteration and DOF: 0.104440 [ns]
	Retrieve results bandwith 2.015000 [GByte/s]
nonecudaGKOCG:  Solving for p, Initial residual = 0.653839, Final residual = 7.80862e-05, No Iterations 3937
linear solve p 53615964
time step continuity errors : sum local = 1.53123e-10, global = -2.80252e-23, cumulative = 2.46294e-22
[OGL LOG][Proc: 0]global_index_init: 0.006 [ms]
[OGL LOG][Proc: 0]global_index_init: 0.004 [ms]
[OGL LOG][Proc: 0]update_host_matrix_data: 1106.35 [ms]
[OGL LOG][Proc: 0]gather_global_matrix: 0 [ms]
[OGL LOG][Proc: 0]generate_distributed_matrix: 557.807 [ms]
[OGL LOG][Proc: 0]init_precond: 0.038 [ms]
[OGL LOG][Proc: 0]generate_solver: 0.002 [ms]
[OGL LOG][Proc: 0]solve: 49704.6 [ms]
[OGL LOG][Proc: 0]copy_x_back: 164.422 [ms]
[OGL LOG][lduLduBase.H:380] 
Statistics:
	Time per iteration: 12660 [mu s]
	Time per iteration and DOF: 0.101280 [ns]
	Retrieve results bandwith 2.027000 [GByte/s]
nonecudaGKOCG:  Solving for p, Initial residual = 0.600808, Final residual = 8.05887e-05, No Iterations 3926
linear solve p 51878858
time step continuity errors : sum local = 1.54572e-10, global = 3.24298e-23, cumulative = 2.78724e-22
ExecutionTime = 10300.9 s  ClockTime = 10321 s

Time = 8e-05

Courant Number mean: 0.0019924 max: 0.0913761
DILUPBiCGStab:  Solving for Ux, Initial residual = 0.0415084, Final residual = 0.000183113, No Iterations 5
DILUPBiCGStab:  Solving for Uy, Initial residual = 0.0887273, Final residual = 0.000196687, No Iterations 5
DILUPBiCGStab:  Solving for Uz, Initial residual = 0.161436, Final residual = 0.000866401, No Iterations 5
linear solve U 58195091
[OGL LOG][Proc: 0]global_index_init: 0.006 [ms]
[OGL LOG][Proc: 0]global_index_init: 0.001 [ms]
[OGL LOG][Proc: 0]update_host_matrix_data: 1106.16 [ms]
[OGL LOG][Proc: 0]gather_global_matrix: 0 [ms]
[OGL LOG][Proc: 0]generate_distributed_matrix: 568.174 [ms]
[OGL LOG][Proc: 0]init_precond: 0.036 [ms]
[OGL LOG][Proc: 0]generate_solver: 0.002 [ms]
[OGL LOG][Proc: 0]solve: 50343.4 [ms]
[OGL LOG][Proc: 0]copy_x_back: 165.404 [ms]
[OGL LOG][lduLduBase.H:380] 
Statistics:
	Time per iteration: 12823 [mu s]
	Time per iteration and DOF: 0.102584 [ns]
	Retrieve results bandwith 2.015000 [GByte/s]
nonecudaGKOCG:  Solving for p, Initial residual = 0.428393, Final residual = 3.72087e-05, No Iterations 3926
linear solve p 52529050
time step continuity errors : sum local = 6.0254e-11, global = 4.09369e-23, cumulative = 3.1966e-22
[OGL LOG][Proc: 0]global_index_init: 0.007 [ms]
[OGL LOG][Proc: 0]global_index_init: 0.001 [ms]
[OGL LOG][Proc: 0]update_host_matrix_data: 1103.06 [ms]
[OGL LOG][Proc: 0]gather_global_matrix: 0 [ms]
[OGL LOG][Proc: 0]generate_distributed_matrix: 578.347 [ms]
[OGL LOG][Proc: 0]init_precond: 0.04 [ms]
[OGL LOG][Proc: 0]generate_solver: 0.002 [ms]
[OGL LOG][Proc: 0]solve: 50125.9 [ms]
[OGL LOG][Proc: 0]copy_x_back: 165.297 [ms]
[OGL LOG][lduLduBase.H:380] 
Statistics:
	Time per iteration: 12767 [mu s]
	Time per iteration and DOF: 0.102136 [ns]
	Retrieve results bandwith 2.016000 [GByte/s]
nonecudaGKOCG:  Solving for p, Initial residual = 0.366135, Final residual = 3.44937e-05, No Iterations 3926
linear solve p 52317230
time step continuity errors : sum local = 5.62537e-11, global = 1.80993e-23, cumulative = 3.3776e-22
ExecutionTime = 10502.4 s  ClockTime = 10525 s

Time = 0.0001

Courant Number mean: 0.00230623 max: 0.0927876
DILUPBiCGStab:  Solving for Ux, Initial residual = 0.0318248, Final residual = 9.93228e-05, No Iterations 5
DILUPBiCGStab:  Solving for Uy, Initial residual = 0.0636256, Final residual = 0.000109005, No Iterations 5
DILUPBiCGStab:  Solving for Uz, Initial residual = 0.0898874, Final residual = 0.000420472, No Iterations 5
linear solve U 58133231
[OGL LOG][Proc: 0]global_index_init: 0.006 [ms]
[OGL LOG][Proc: 0]global_index_init: 0.001 [ms]
[OGL LOG][Proc: 0]update_host_matrix_data: 1106 [ms]
[OGL LOG][Proc: 0]gather_global_matrix: 0 [ms]
[OGL LOG][Proc: 0]generate_distributed_matrix: 616.142 [ms]
[OGL LOG][Proc: 0]init_precond: 0.039 [ms]
[OGL LOG][Proc: 0]generate_solver: 0.002 [ms]
[OGL LOG][Proc: 0]solve: 49418.1 [ms]
[OGL LOG][Proc: 0]copy_x_back: 165.65 [ms]
[OGL LOG][lduLduBase.H:380] 
Statistics:
	Time per iteration: 13111 [mu s]
	Time per iteration and DOF: 0.104888 [ns]
	Retrieve results bandwith 2.012000 [GByte/s]
nonecudaGKOCG:  Solving for p, Initial residual = 0.331523, Final residual = 9.9993e-05, No Iterations 3769
linear solve p 51651642
time step continuity errors : sum local = 1.34222e-10, global = 9.47884e-24, cumulative = 3.47239e-22
[OGL LOG][Proc: 0]global_index_init: 0.006 [ms]
[OGL LOG][Proc: 0]global_index_init: 0.001 [ms]
[OGL LOG][Proc: 0]update_host_matrix_data: 1105.34 [ms]
[OGL LOG][Proc: 0]gather_global_matrix: 0 [ms]
[OGL LOG][Proc: 0]generate_distributed_matrix: 582.952 [ms]
[OGL LOG][Proc: 0]init_precond: 0.042 [ms]
[OGL LOG][Proc: 0]generate_solver: 0.002 [ms]
[OGL LOG][Proc: 0]solve: 51131.1 [ms]
[OGL LOG][Proc: 0]copy_x_back: 165.307 [ms]
[OGL LOG][lduLduBase.H:380] 
Statistics:
	Time per iteration: 13107 [mu s]
	Time per iteration and DOF: 0.104856 [ns]
	Retrieve results bandwith 2.016000 [GByte/s]
nonecudaGKOCG:  Solving for p, Initial residual = 0.284592, Final residual = 3.84508e-05, No Iterations 3901
linear solve p 53329039
time step continuity errors : sum local = 5.12995e-11, global = 4.08263e-23, cumulative = 3.88065e-22
ExecutionTime = 10704 s  ClockTime = 10728 s

Time = 0.00012

Courant Number mean: 0.00257482 max: 0.0936645
DILUPBiCGStab:  Solving for Ux, Initial residual = 0.0259357, Final residual = 7.23846e-05, No Iterations 5
DILUPBiCGStab:  Solving for Uy, Initial residual = 0.050049, Final residual = 5.27404e-05, No Iterations 5
DILUPBiCGStab:  Solving for Uz, Initial residual = 0.0790295, Final residual = 0.000351667, No Iterations 5
linear solve U 58175028
[OGL LOG][Proc: 0]global_index_init: 0.006 [ms]
[OGL LOG][Proc: 0]global_index_init: 0.001 [ms]
[OGL LOG][Proc: 0]update_host_matrix_data: 1105.37 [ms]
[OGL LOG][Proc: 0]gather_global_matrix: 0 [ms]
[OGL LOG][Proc: 0]generate_distributed_matrix: 577.07 [ms]
[OGL LOG][Proc: 0]init_precond: 0.038 [ms]
[OGL LOG][Proc: 0]generate_solver: 0.002 [ms]
[OGL LOG][Proc: 0]solve: 50114.3 [ms]
[OGL LOG][Proc: 0]copy_x_back: 165.086 [ms]
[OGL LOG][lduLduBase.H:380] 
Statistics:
	Time per iteration: 12846 [mu s]
	Time per iteration and DOF: 0.102768 [ns]
	Retrieve results bandwith 2.019000 [GByte/s]
nonecudaGKOCG:  Solving for p, Initial residual = 0.210731, Final residual = 3.58277e-05, No Iterations 3901
linear solve p 52307305
time step continuity errors : sum local = 4.58295e-11, global = -3.08608e-23, cumulative = 3.57204e-22
[OGL LOG][Proc: 0]global_index_init: 0.007 [ms]
[OGL LOG][Proc: 0]global_index_init: 0.001 [ms]
[OGL LOG][Proc: 0]update_host_matrix_data: 1105.49 [ms]
[OGL LOG][Proc: 0]gather_global_matrix: 0 [ms]
[OGL LOG][Proc: 0]generate_distributed_matrix: 575.912 [ms]
[OGL LOG][Proc: 0]init_precond: 0.039 [ms]
[OGL LOG][Proc: 0]generate_solver: 0.002 [ms]
[OGL LOG][Proc: 0]solve: 50077.7 [ms]
[OGL LOG][Proc: 0]copy_x_back: 165.511 [ms]
[OGL LOG][lduLduBase.H:380] 
Statistics:
	Time per iteration: 12837 [mu s]
	Time per iteration and DOF: 0.102696 [ns]
	Retrieve results bandwith 2.013000 [GByte/s]
nonecudaGKOCG:  Solving for p, Initial residual = 0.176412, Final residual = 3.40379e-05, No Iterations 3901
linear solve p 52268957
time step continuity errors : sum local = 4.35208e-11, global = 2.13474e-24, cumulative = 3.59339e-22
ExecutionTime = 10905.3 s  ClockTime = 10931 s

Time = 0.00014

Courant Number mean: 0.00281234 max: 0.0942773
DILUPBiCGStab:  Solving for Ux, Initial residual = 0.0220175, Final residual = 5.06097e-05, No Iterations 5
DILUPBiCGStab:  Solving for Uy, Initial residual = 0.0411082, Final residual = 4.19022e-05, No Iterations 5
DILUPBiCGStab:  Solving for Uz, Initial residual = 0.0658611, Final residual = 0.000210996, No Iterations 5
linear solve U 58168895
[OGL LOG][Proc: 0]global_index_init: 0.006 [ms]
[OGL LOG][Proc: 0]global_index_init: 0 [ms]
[OGL LOG][Proc: 0]update_host_matrix_data: 1105.79 [ms]
[OGL LOG][Proc: 0]gather_global_matrix: 0 [ms]
[OGL LOG][Proc: 0]generate_distributed_matrix: 589.559 [ms]
[OGL LOG][Proc: 0]init_precond: 0.039 [ms]
[OGL LOG][Proc: 0]generate_solver: 0.003 [ms]
[OGL LOG][Proc: 0]solve: 47915.9 [ms]
[OGL LOG][Proc: 0]copy_x_back: 165.774 [ms]
[OGL LOG][lduLduBase.H:380] 
Statistics:
	Time per iteration: 12794 [mu s]
	Time per iteration and DOF: 0.102352 [ns]
	Retrieve results bandwith 2.010000 [GByte/s]
nonecudaGKOCG:  Solving for p, Initial residual = 0.152973, Final residual = 9.00657e-05, No Iterations 3745
linear solve p 50126918
time step continuity errors : sum local = 1.09421e-10, global = 3.83651e-23, cumulative = 3.97704e-22
[OGL LOG][Proc: 0]global_index_init: 0.007 [ms]
[OGL LOG][Proc: 0]global_index_init: 0.001 [ms]
[OGL LOG][Proc: 0]update_host_matrix_data: 1106.27 [ms]
[OGL LOG][Proc: 0]gather_global_matrix: 0 [ms]
[OGL LOG][Proc: 0]generate_distributed_matrix: 577.452 [ms]
[OGL LOG][Proc: 0]init_precond: 0.031 [ms]
[OGL LOG][Proc: 0]generate_solver: 0.002 [ms]
[OGL LOG][Proc: 0]solve: 50728.5 [ms]
[OGL LOG][Proc: 0]copy_x_back: 165.952 [ms]
[OGL LOG][lduLduBase.H:380] 
Statistics:
	Time per iteration: 13091 [mu s]
	Time per iteration and DOF: 0.104728 [ns]
	Retrieve results bandwith 2.008000 [GByte/s]
nonecudaGKOCG:  Solving for p, Initial residual = 0.128766, Final residual = 3.88568e-05, No Iterations 3875
linear solve p 52922726
time step continuity errors : sum local = 4.72008e-11, global = -3.61528e-23, cumulative = 3.61551e-22
ExecutionTime = 11104.9 s  ClockTime = 11133 s

Time = 0.00016

Courant Number mean: 0.00302655 max: 0.0947367
DILUPBiCGStab:  Solving for Ux, Initial residual = 0.0191819, Final residual = 3.73247e-05, No Iterations 5
DILUPBiCGStab:  Solving for Uy, Initial residual = 0.0349171, Final residual = 1.95629e-05, No Iterations 5
DILUPBiCGStab:  Solving for Uz, Initial residual = 0.0584352, Final residual = 0.000135928, No Iterations 5
linear solve U 58176489
[OGL LOG][Proc: 0]global_index_init: 0.007 [ms]
[OGL LOG][Proc: 0]global_index_init: 0 [ms]
[OGL LOG][Proc: 0]update_host_matrix_data: 1105.61 [ms]
[OGL LOG][Proc: 0]gather_global_matrix: 0 [ms]
[OGL LOG][Proc: 0]generate_distributed_matrix: 597.69 [ms]
[OGL LOG][Proc: 0]init_precond: 0.038 [ms]
[OGL LOG][Proc: 0]generate_solver: 0.002 [ms]
[OGL LOG][Proc: 0]solve: 47817.9 [ms]
[OGL LOG][Proc: 0]copy_x_back: 165.447 [ms]
[OGL LOG][lduLduBase.H:380] 
Statistics:
	Time per iteration: 12850 [mu s]
	Time per iteration and DOF: 0.102800 [ns]
	Retrieve results bandwith 2.014000 [GByte/s]
nonecudaGKOCG:  Solving for p, Initial residual = 0.10149, Final residual = 9.37621e-05, No Iterations 3721
linear solve p 50031434
time step continuity errors : sum local = 1.11112e-10, global = 7.71451e-23, cumulative = 4.38696e-22
[OGL LOG][Proc: 0]global_index_init: 0.007 [ms]
[OGL LOG][Proc: 0]global_index_init: 0.001 [ms]
[OGL LOG][Proc: 0]update_host_matrix_data: 1104.62 [ms]
[OGL LOG][Proc: 0]gather_global_matrix: 0 [ms]
[OGL LOG][Proc: 0]generate_distributed_matrix: 566.944 [ms]
[OGL LOG][Proc: 0]init_precond: 0.033 [ms]
[OGL LOG][Proc: 0]generate_solver: 0.002 [ms]
[OGL LOG][Proc: 0]solve: 47571.8 [ms]
[OGL LOG][Proc: 0]copy_x_back: 165.739 [ms]
[OGL LOG][lduLduBase.H:380] 
Statistics:
	Time per iteration: 12853 [mu s]
	Time per iteration and DOF: 0.102824 [ns]
	Retrieve results bandwith 2.011000 [GByte/s]
nonecudaGKOCG:  Solving for p, Initial residual = 0.084841, Final residual = 9.12397e-05, No Iterations 3701
linear solve p 49753197
time step continuity errors : sum local = 1.08061e-10, global = -5.29521e-23, cumulative = 3.85744e-22
ExecutionTime = 11301.3 s  ClockTime = 11331 s

Time = 0.00018

Courant Number mean: 0.00322264 max: 0.0950976
DILUPBiCGStab:  Solving for Ux, Initial residual = 0.0170158, Final residual = 2.7883e-05, No Iterations 5
DILUPBiCGStab:  Solving for Uy, Initial residual = 0.0303409, Final residual = 1.84238e-05, No Iterations 5
DILUPBiCGStab:  Solving for Uz, Initial residual = 0.0515529, Final residual = 9.8235e-05, No Iterations 5
linear solve U 58194203
[OGL LOG][Proc: 0]global_index_init: 0.01 [ms]
[OGL LOG][Proc: 0]global_index_init: 0.001 [ms]
[OGL LOG][Proc: 0]update_host_matrix_data: 1109.18 [ms]
[OGL LOG][Proc: 0]gather_global_matrix: 0 [ms]
[OGL LOG][Proc: 0]generate_distributed_matrix: 605.542 [ms]
[OGL LOG][Proc: 0]init_precond: 0.038 [ms]
[OGL LOG][Proc: 0]generate_solver: 0.002 [ms]
[OGL LOG][Proc: 0]solve: 49204.7 [ms]
[OGL LOG][Proc: 0]copy_x_back: 165.925 [ms]
[OGL LOG][lduLduBase.H:380] 
Statistics:
	Time per iteration: 12783 [mu s]
	Time per iteration and DOF: 0.102264 [ns]
	Retrieve results bandwith 2.008000 [GByte/s]
nonecudaGKOCG:  Solving for p, Initial residual = 0.0766364, Final residual = 4.59619e-05, No Iterations 3849
linear solve p 51438098
time step continuity errors : sum local = 5.35312e-11, global = -9.56219e-23, cumulative = 2.90122e-22
[OGL LOG][Proc: 0]global_index_init: 0.006 [ms]
[OGL LOG][Proc: 0]global_index_init: 0 [ms]
[OGL LOG][Proc: 0]update_host_matrix_data: 1108.44 [ms]
[OGL LOG][Proc: 0]gather_global_matrix: 0 [ms]
[OGL LOG][Proc: 0]generate_distributed_matrix: 574.232 [ms]
[OGL LOG][Proc: 0]init_precond: 0.036 [ms]
[OGL LOG][Proc: 0]generate_solver: 0.002 [ms]
[OGL LOG][Proc: 0]solve: 50082.2 [ms]
[OGL LOG][Proc: 0]copy_x_back: 165.275 [ms]
[OGL LOG][lduLduBase.H:380] 
Statistics:
	Time per iteration: 13089 [mu s]
	Time per iteration and DOF: 0.104712 [ns]
	Retrieve results bandwith 2.016000 [GByte/s]
nonecudaGKOCG:  Solving for p, Initial residual = 0.0643476, Final residual = 6.99681e-05, No Iterations 3826
linear solve p 52274601
time step continuity errors : sum local = 8.15045e-11, global = -5.47426e-23, cumulative = 2.3538e-22
ExecutionTime = 11501.6 s  ClockTime = 11534 s

Time = 0.0002

Courant Number mean: 0.00340402 max: 0.0953908
DILUPBiCGStab:  Solving for Ux, Initial residual = 0.0153164, Final residual = 2.16967e-05, No Iterations 5
DILUPBiCGStab:  Solving for Uy, Initial residual = 0.0268156, Final residual = 1.04228e-05, No Iterations 5
DILUPBiCGStab:  Solving for Uz, Initial residual = 0.0470584, Final residual = 7.24098e-05, No Iterations 5
linear solve U 58180118
[OGL LOG][Proc: 0]global_index_init: 0.006 [ms]
[OGL LOG][Proc: 0]global_index_init: 0 [ms]
[OGL LOG][Proc: 0]update_host_matrix_data: 1109.8 [ms]
[OGL LOG][Proc: 0]gather_global_matrix: 0 [ms]
[OGL LOG][Proc: 0]generate_distributed_matrix: 614.722 [ms]
[OGL LOG][Proc: 0]init_precond: 0.04 [ms]
[OGL LOG][Proc: 0]generate_solver: 0.002 [ms]
[OGL LOG][Proc: 0]solve: 49129.4 [ms]
[OGL LOG][Proc: 0]copy_x_back: 164.472 [ms]
[OGL LOG][lduLduBase.H:380] 
Statistics:
	Time per iteration: 12840 [mu s]
	Time per iteration and DOF: 0.102720 [ns]
	Retrieve results bandwith 2.026000 [GByte/s]
nonecudaGKOCG:  Solving for p, Initial residual = 0.0516386, Final residual = 4.6832e-05, No Iterations 3826
linear solve p 51364684
time step continuity errors : sum local = 5.38561e-11, global = -4.1585e-23, cumulative = 1.93795e-22
[OGL LOG][Proc: 0]global_index_init: 0.007 [ms]
[OGL LOG][Proc: 0]global_index_init: 0.001 [ms]
[OGL LOG][Proc: 0]update_host_matrix_data: 1103.43 [ms]
[OGL LOG][Proc: 0]gather_global_matrix: 0 [ms]
[OGL LOG][Proc: 0]generate_distributed_matrix: 569.691 [ms]
[OGL LOG][Proc: 0]init_precond: 0.041 [ms]
[OGL LOG][Proc: 0]generate_solver: 0.002 [ms]
[OGL LOG][Proc: 0]solve: 49134.7 [ms]
[OGL LOG][Proc: 0]copy_x_back: 164.817 [ms]
[OGL LOG][lduLduBase.H:380] 
Statistics:
	Time per iteration: 12842 [mu s]
	Time per iteration and DOF: 0.102736 [ns]
	Retrieve results bandwith 2.022000 [GByte/s]
nonecudaGKOCG:  Solving for p, Initial residual = 0.0440459, Final residual = 4.36414e-05, No Iterations 3826
linear solve p 51318229
time step continuity errors : sum local = 5.01934e-11, global = -1.96709e-23, cumulative = 1.74124e-22
ExecutionTime = 11701 s  ClockTime = 11735 s

Time = 0.00022

Courant Number mean: 0.00357322 max: 0.0956351
DILUPBiCGStab:  Solving for Ux, Initial residual = 0.0139313, Final residual = 1.71942e-05, No Iterations 5
DILUPBiCGStab:  Solving for Uy, Initial residual = 0.0240232, Final residual = 9.69439e-06, No Iterations 5
DILUPBiCGStab:  Solving for Uz, Initial residual = 0.0428087, Final residual = 5.61393e-05, No Iterations 5
linear solve U 58137892
[OGL LOG][Proc: 0]global_index_init: 0.006 [ms]
[OGL LOG][Proc: 0]global_index_init: 0.001 [ms]
[OGL LOG][Proc: 0]update_host_matrix_data: 1106.21 [ms]
[OGL LOG][Proc: 0]gather_global_matrix: 0 [ms]
[OGL LOG][Proc: 0]generate_distributed_matrix: 606.884 [ms]
[OGL LOG][Proc: 0]init_precond: 0.038 [ms]
[OGL LOG][Proc: 0]generate_solver: 0.002 [ms]
[OGL LOG][Proc: 0]solve: 48894.8 [ms]
[OGL LOG][Proc: 0]copy_x_back: 165.629 [ms]
[OGL LOG][lduLduBase.H:380] 
Statistics:
	Time per iteration: 12779 [mu s]
	Time per iteration and DOF: 0.102232 [ns]
	Retrieve results bandwith 2.012000 [GByte/s]
nonecudaGKOCG:  Solving for p, Initial residual = 0.0413381, Final residual = 4.35188e-05, No Iterations 3826
linear solve p 51127224
time step continuity errors : sum local = 4.97109e-11, global = -1.61867e-23, cumulative = 1.57937e-22
[OGL LOG][Proc: 0]global_index_init: 0.007 [ms]
[OGL LOG][Proc: 0]global_index_init: 0 [ms]
[OGL LOG][Proc: 0]update_host_matrix_data: 1106.93 [ms]
[OGL LOG][Proc: 0]gather_global_matrix: 0 [ms]
[OGL LOG][Proc: 0]generate_distributed_matrix: 572.111 [ms]
[OGL LOG][Proc: 0]init_precond: 0.04 [ms]
[OGL LOG][Proc: 0]generate_solver: 0.002 [ms]
[OGL LOG][Proc: 0]solve: 48941.8 [ms]
[OGL LOG][Proc: 0]copy_x_back: 165.664 [ms]
[OGL LOG][lduLduBase.H:380] 
Statistics:
	Time per iteration: 12791 [mu s]
	Time per iteration and DOF: 0.102328 [ns]
	Retrieve results bandwith 2.012000 [GByte/s]
nonecudaGKOCG:  Solving for p, Initial residual = 0.0352903, Final residual = 4.13478e-05, No Iterations 3826
linear solve p 51130738
time step continuity errors : sum local = 4.72339e-11, global = 1.42682e-23, cumulative = 1.72205e-22
ExecutionTime = 11899.9 s  ClockTime = 11936 s

Time = 0.00024

Courant Number mean: 0.00373211 max: 0.0958427
DILUPBiCGStab:  Solving for Ux, Initial residual = 0.0127881, Final residual = 1.40186e-05, No Iterations 5
DILUPBiCGStab:  Solving for Uy, Initial residual = 0.0217496, Final residual = 6.73581e-06, No Iterations 5
DILUPBiCGStab:  Solving for Uz, Initial residual = 0.0393009, Final residual = 4.46929e-05, No Iterations 5
linear solve U 58201479
[OGL LOG][Proc: 0]global_index_init: 0.007 [ms]
[OGL LOG][Proc: 0]global_index_init: 0.001 [ms]
[OGL LOG][Proc: 0]update_host_matrix_data: 1109.2 [ms]
[OGL LOG][Proc: 0]gather_global_matrix: 0 [ms]
[OGL LOG][Proc: 0]generate_distributed_matrix: 608.354 [ms]
[OGL LOG][Proc: 0]init_precond: 0.04 [ms]
[OGL LOG][Proc: 0]generate_solver: 0.002 [ms]
[OGL LOG][Proc: 0]solve: 47027.6 [ms]
[OGL LOG][Proc: 0]copy_x_back: 166.079 [ms]
[OGL LOG][lduLduBase.H:380] 
Statistics:
	Time per iteration: 12803 [mu s]
	Time per iteration and DOF: 0.102424 [ns]
	Retrieve results bandwith 2.007000 [GByte/s]
nonecudaGKOCG:  Solving for p, Initial residual = 0.0299123, Final residual = 9.32349e-05, No Iterations 3673
linear solve p 49257830
time step continuity errors : sum local = 1.05971e-10, global = 4.7727e-23, cumulative = 2.19932e-22
[OGL LOG][Proc: 0]global_index_init: 0.006 [ms]
[OGL LOG][Proc: 0]global_index_init: 0 [ms]
[OGL LOG][Proc: 0]update_host_matrix_data: 1106.43 [ms]
[OGL LOG][Proc: 0]gather_global_matrix: 0 [ms]
[OGL LOG][Proc: 0]generate_distributed_matrix: 574.874 [ms]
[OGL LOG][Proc: 0]init_precond: 0.039 [ms]
[OGL LOG][Proc: 0]generate_solver: 0.002 [ms]
[OGL LOG][Proc: 0]solve: 46757.1 [ms]
[OGL LOG][Proc: 0]copy_x_back: 165.545 [ms]
[OGL LOG][lduLduBase.H:380] 
Statistics:
	Time per iteration: 12806 [mu s]
	Time per iteration and DOF: 0.102448 [ns]
	Retrieve results bandwith 2.013000 [GByte/s]
nonecudaGKOCG:  Solving for p, Initial residual = 0.026468, Final residual = 8.94981e-05, No Iterations 3651
linear solve p 48948695
time step continuity errors : sum local = 1.01772e-10, global = -3.97102e-23, cumulative = 1.80222e-22
ExecutionTime = 12095 s  ClockTime = 12133 s

Time = 0.00026

Courant Number mean: 0.00388219 max: 0.096022
DILUPBiCGStab:  Solving for Ux, Initial residual = 0.0118205, Final residual = 1.16287e-05, No Iterations 5
DILUPBiCGStab:  Solving for Uy, Initial residual = 0.0198676, Final residual = 6.13965e-06, No Iterations 5
DILUPBiCGStab:  Solving for Uz, Initial residual = 0.0359638, Final residual = 3.62936e-05, No Iterations 5
linear solve U 58228558
[OGL LOG][Proc: 0]global_index_init: 0.007 [ms]
[OGL LOG][Proc: 0]global_index_init: 0.001 [ms]
[OGL LOG][Proc: 0]update_host_matrix_data: 1108.63 [ms]
[OGL LOG][Proc: 0]gather_global_matrix: 0 [ms]
[OGL LOG][Proc: 0]generate_distributed_matrix: 570.259 [ms]
[OGL LOG][Proc: 0]init_precond: 0.038 [ms]
[OGL LOG][Proc: 0]generate_solver: 0.002 [ms]
[OGL LOG][Proc: 0]solve: 46951.9 [ms]
[OGL LOG][Proc: 0]copy_x_back: 165.863 [ms]
[OGL LOG][lduLduBase.H:380] 
Statistics:
	Time per iteration: 12859 [mu s]
	Time per iteration and DOF: 0.102872 [ns]
	Retrieve results bandwith 2.009000 [GByte/s]
nonecudaGKOCG:  Solving for p, Initial residual = 0.0251157, Final residual = 7.54641e-05, No Iterations 3651
linear solve p 49142935
time step continuity errors : sum local = 8.55278e-11, global = -8.61047e-24, cumulative = 1.71612e-22
[OGL LOG][Proc: 0]global_index_init: 0.007 [ms]
[OGL LOG][Proc: 0]global_index_init: 0.001 [ms]
[OGL LOG][Proc: 0]update_host_matrix_data: 1103.58 [ms]
[OGL LOG][Proc: 0]gather_global_matrix: 0 [ms]
[OGL LOG][Proc: 0]generate_distributed_matrix: 574.775 [ms]
[OGL LOG][Proc: 0]init_precond: 0.034 [ms]
[OGL LOG][Proc: 0]generate_solver: 0.001 [ms]
[OGL LOG][Proc: 0]solve: 47035.5 [ms]
[OGL LOG][Proc: 0]copy_x_back: 166.338 [ms]
[OGL LOG][lduLduBase.H:380] 
Statistics:
	Time per iteration: 12882 [mu s]
	Time per iteration and DOF: 0.103056 [ns]
	Retrieve results bandwith 2.003000 [GByte/s]
nonecudaGKOCG:  Solving for p, Initial residual = 0.0222484, Final residual = 6.90631e-05, No Iterations 3651
linear solve p 49225092
time step continuity errors : sum local = 7.82863e-11, global = -1.5736e-23, cumulative = 1.55876e-22
ExecutionTime = 12290.2 s  ClockTime = 12330 s

Time = 0.00028

Courant Number mean: 0.0040245 max: 0.0961788
DILUPBiCGStab:  Solving for Ux, Initial residual = 0.0109949, Final residual = 9.84721e-06, No Iterations 5
DILUPBiCGStab:  Solving for Uy, Initial residual = 0.0182802, Final residual = 4.91248e-06, No Iterations 5
DILUPBiCGStab:  Solving for Uz, Initial residual = 0.0335289, Final residual = 3.03182e-05, No Iterations 5
linear solve U 58222694
[OGL LOG][Proc: 0]global_index_init: 0.007 [ms]
[OGL LOG][Proc: 0]global_index_init: 0.001 [ms]
[OGL LOG][Proc: 0]update_host_matrix_data: 1102.52 [ms]
[OGL LOG][Proc: 0]gather_global_matrix: 0 [ms]
[OGL LOG][Proc: 0]generate_distributed_matrix: 568.019 [ms]
[OGL LOG][Proc: 0]init_precond: 0.036 [ms]
[OGL LOG][Proc: 0]generate_solver: 0.002 [ms]
[OGL LOG][Proc: 0]solve: 47472.8 [ms]
[OGL LOG][Proc: 0]copy_x_back: 165.466 [ms]
[OGL LOG][lduLduBase.H:380] 
Statistics:
	Time per iteration: 13002 [mu s]
	Time per iteration and DOF: 0.104016 [ns]
	Retrieve results bandwith 2.014000 [GByte/s]
nonecudaGKOCG:  Solving for p, Initial residual = 0.0199793, Final residual = 7.82358e-05, No Iterations 3651
linear solve p 49653318
time step continuity errors : sum local = 8.85657e-11, global = -2.78132e-23, cumulative = 1.28062e-22
[OGL LOG][Proc: 0]global_index_init: 0.006 [ms]
[OGL LOG][Proc: 0]global_index_init: 0 [ms]
[OGL LOG][Proc: 0]update_host_matrix_data: 1104.18 [ms]
[OGL LOG][Proc: 0]gather_global_matrix: 0 [ms]
[OGL LOG][Proc: 0]generate_distributed_matrix: 569.791 [ms]
[OGL LOG][Proc: 0]init_precond: 0.032 [ms]
[OGL LOG][Proc: 0]generate_solver: 0.001 [ms]
[OGL LOG][Proc: 0]solve: 46817.5 [ms]
[OGL LOG][Proc: 0]copy_x_back: 165.237 [ms]
[OGL LOG][lduLduBase.H:380] 
Statistics:
	Time per iteration: 12823 [mu s]
	Time per iteration and DOF: 0.102584 [ns]
	Retrieve results bandwith 2.017000 [GByte/s]
nonecudaGKOCG:  Solving for p, Initial residual = 0.0182493, Final residual = 7.57321e-05, No Iterations 3651
linear solve p 49001478
time step continuity errors : sum local = 8.57648e-11, global = 1.97171e-23, cumulative = 1.4778e-22
ExecutionTime = 12485.6 s  ClockTime = 12527 s

Time = 0.0003

Courant Number mean: 0.00415997 max: 0.0963176
DILUPBiCGStab:  Solving for Ux, Initial residual = 0.0102783, Final residual = 8.46613e-06, No Iterations 5
DILUPBiCGStab:  Solving for Uy, Initial residual = 0.0169259, Final residual = 4.47683e-06, No Iterations 5
DILUPBiCGStab:  Solving for Uz, Initial residual = 0.0312117, Final residual = 2.56376e-05, No Iterations 5
linear solve U 58235217
[OGL LOG][Proc: 0]global_index_init: 0.007 [ms]
[OGL LOG][Proc: 0]global_index_init: 0.001 [ms]
[OGL LOG][Proc: 0]update_host_matrix_data: 1105.53 [ms]
[OGL LOG][Proc: 0]gather_global_matrix: 0 [ms]
[OGL LOG][Proc: 0]generate_distributed_matrix: 601.839 [ms]
[OGL LOG][Proc: 0]init_precond: 0.037 [ms]
[OGL LOG][Proc: 0]generate_solver: 0.002 [ms]
[OGL LOG][Proc: 0]solve: 47011.5 [ms]
[OGL LOG][Proc: 0]copy_x_back: 165.759 [ms]
[OGL LOG][lduLduBase.H:380] 
Statistics:
	Time per iteration: 12876 [mu s]
	Time per iteration and DOF: 0.103008 [ns]
	Retrieve results bandwith 2.010000 [GByte/s]
nonecudaGKOCG:  Solving for p, Initial residual = 0.0174421, Final residual = 6.89368e-05, No Iterations 3651
linear solve p 49232050
time step continuity errors : sum local = 7.78985e-11, global = 3.98887e-23, cumulative = 1.87668e-22
[OGL LOG][Proc: 0]global_index_init: 0.006 [ms]
[OGL LOG][Proc: 0]global_index_init: 0 [ms]
[OGL LOG][Proc: 0]update_host_matrix_data: 1105.09 [ms]
[OGL LOG][Proc: 0]gather_global_matrix: 0 [ms]
[OGL LOG][Proc: 0]generate_distributed_matrix: 582.78 [ms]
[OGL LOG][Proc: 0]init_precond: 0.032 [ms]
[OGL LOG][Proc: 0]generate_solver: 0.001 [ms]
[OGL LOG][Proc: 0]solve: 47042.7 [ms]
[OGL LOG][Proc: 0]copy_x_back: 165.656 [ms]
[OGL LOG][lduLduBase.H:380] 
Statistics:
	Time per iteration: 12884 [mu s]
	Time per iteration and DOF: 0.103072 [ns]
	Retrieve results bandwith 2.012000 [GByte/s]
nonecudaGKOCG:  Solving for p, Initial residual = 0.0159978, Final residual = 6.64407e-05, No Iterations 3651
linear solve p 49240073
time step continuity errors : sum local = 7.50957e-11, global = -6.37689e-23, cumulative = 1.23899e-22
ExecutionTime = 12680.9 s  ClockTime = 12724 s

Time = 0.00032

Courant Number mean: 0.00428942 max: 0.0964414
DILUPBiCGStab:  Solving for Ux, Initial residual = 0.00965213, Final residual = 7.39169e-06, No Iterations 5
DILUPBiCGStab:  Solving for Uy, Initial residual = 0.015755, Final residual = 3.87649e-06, No Iterations 5
DILUPBiCGStab:  Solving for Uz, Initial residual = 0.02933, Final residual = 2.1925e-05, No Iterations 5
linear solve U 58212989
[OGL LOG][Proc: 0]global_index_init: 0.007 [ms]
[OGL LOG][Proc: 0]global_index_init: 0.001 [ms]
[OGL LOG][Proc: 0]update_host_matrix_data: 1107.02 [ms]
[OGL LOG][Proc: 0]gather_global_matrix: 0 [ms]
[OGL LOG][Proc: 0]generate_distributed_matrix: 571.384 [ms]
[OGL LOG][Proc: 0]init_precond: 0.04 [ms]
[OGL LOG][Proc: 0]generate_solver: 0.002 [ms]
[OGL LOG][Proc: 0]solve: 47883.6 [ms]
[OGL LOG][Proc: 0]copy_x_back: 166.335 [ms]
[OGL LOG][lduLduBase.H:380] 
Statistics:
	Time per iteration: 13115 [mu s]
	Time per iteration and DOF: 0.104920 [ns]
	Retrieve results bandwith 2.003000 [GByte/s]
nonecudaGKOCG:  Solving for p, Initial residual = 0.014887, Final residual = 5.13903e-05, No Iterations 3651
linear solve p 50073599
time step continuity errors : sum local = 5.80812e-11, global = -5.97034e-23, cumulative = 6.41959e-23
[OGL LOG][Proc: 0]global_index_init: 0.006 [ms]
[OGL LOG][Proc: 0]global_index_init: 0.001 [ms]
[OGL LOG][Proc: 0]update_host_matrix_data: 1105.36 [ms]
[OGL LOG][Proc: 0]gather_global_matrix: 0 [ms]
[OGL LOG][Proc: 0]generate_distributed_matrix: 580.109 [ms]
[OGL LOG][Proc: 0]init_precond: 0.038 [ms]
[OGL LOG][Proc: 0]generate_solver: 0.002 [ms]
[OGL LOG][Proc: 0]solve: 46702.9 [ms]
[OGL LOG][Proc: 0]copy_x_back: 166.268 [ms]
[OGL LOG][lduLduBase.H:380] 
Statistics:
	Time per iteration: 12791 [mu s]
	Time per iteration and DOF: 0.102328 [ns]
	Retrieve results bandwith 2.004000 [GByte/s]
nonecudaGKOCG:  Solving for p, Initial residual = 0.0139172, Final residual = 3.76714e-05, No Iterations 3651
linear solve p 48900013
time step continuity errors : sum local = 4.25888e-11, global = 7.54802e-25, cumulative = 6.49507e-23
ExecutionTime = 12876.7 s  ClockTime = 12922 s

Time = 0.00034

Courant Number mean: 0.00441344 max: 0.0965528
DILUPBiCGStab:  Solving for Ux, Initial residual = 0.00909853, Final residual = 6.54759e-06, No Iterations 5
DILUPBiCGStab:  Solving for Uy, Initial residual = 0.0147339, Final residual = 3.56229e-06, No Iterations 5
DILUPBiCGStab:  Solving for Uz, Initial residual = 0.0276747, Final residual = 1.905e-05, No Iterations 5
linear solve U 58114791
[OGL LOG][Proc: 0]global_index_init: 0.009 [ms]
[OGL LOG][Proc: 0]global_index_init: 0.001 [ms]
[OGL LOG][Proc: 0]update_host_matrix_data: 1112.91 [ms]
[OGL LOG][Proc: 0]gather_global_matrix: 0 [ms]
[OGL LOG][Proc: 0]generate_distributed_matrix: 608.709 [ms]
[OGL LOG][Proc: 0]init_precond: 0.04 [ms]
[OGL LOG][Proc: 0]generate_solver: 0.002 [ms]
[OGL LOG][Proc: 0]solve: 46776.2 [ms]
[OGL LOG][Proc: 0]copy_x_back: 165.112 [ms]
[OGL LOG][lduLduBase.H:380] 
Statistics:
	Time per iteration: 12811 [mu s]
	Time per iteration and DOF: 0.102488 [ns]
	Retrieve results bandwith 2.018000 [GByte/s]
nonecudaGKOCG:  Solving for p, Initial residual = 0.0132035, Final residual = 6.2777e-05, No Iterations 3651
linear solve p 49009886
time step continuity errors : sum local = 7.08768e-11, global = -8.69579e-23, cumulative = -2.20072e-23
[OGL LOG][Proc: 0]global_index_init: 0.006 [ms]
[OGL LOG][Proc: 0]global_index_init: 0 [ms]
[OGL LOG][Proc: 0]update_host_matrix_data: 1103.95 [ms]
[OGL LOG][Proc: 0]gather_global_matrix: 0 [ms]
[OGL LOG][Proc: 0]generate_distributed_matrix: 564.929 [ms]
[OGL LOG][Proc: 0]init_precond: 0.039 [ms]
[OGL LOG][Proc: 0]generate_solver: 0.002 [ms]
[OGL LOG][Proc: 0]solve: 46695.9 [ms]
[OGL LOG][Proc: 0]copy_x_back: 165.213 [ms]
[OGL LOG][lduLduBase.H:380] 
Statistics:
	Time per iteration: 12789 [mu s]
	Time per iteration and DOF: 0.102312 [ns]
	Retrieve results bandwith 2.017000 [GByte/s]
nonecudaGKOCG:  Solving for p, Initial residual = 0.0124306, Final residual = 6.01337e-05, No Iterations 3651
linear solve p 48875900
time step continuity errors : sum local = 6.79101e-11, global = 5.32184e-24, cumulative = -1.66853e-23
ExecutionTime = 13071.4 s  ClockTime = 13119 s

Time = 0.00036

Courant Number mean: 0.0045325 max: 0.0966537
DILUPBiCGStab:  Solving for Ux, Initial residual = 0.0086064, Final residual = 5.88853e-06, No Iterations 5
DILUPBiCGStab:  Solving for Uy, Initial residual = 0.0138347, Final residual = 3.21249e-06, No Iterations 5
DILUPBiCGStab:  Solving for Uz, Initial residual = 0.0260363, Final residual = 1.65436e-05, No Iterations 5
linear solve U 58198040
[OGL LOG][Proc: 0]global_index_init: 0.006 [ms]
[OGL LOG][Proc: 0]global_index_init: 0.001 [ms]
[OGL LOG][Proc: 0]update_host_matrix_data: 1106.42 [ms]
[OGL LOG][Proc: 0]gather_global_matrix: 0 [ms]
[OGL LOG][Proc: 0]generate_distributed_matrix: 559.658 [ms]
[OGL LOG][Proc: 0]init_precond: 0.039 [ms]
[OGL LOG][Proc: 0]generate_solver: 0.003 [ms]
[OGL LOG][Proc: 0]solve: 46767.7 [ms]
[OGL LOG][Proc: 0]copy_x_back: 165.598 [ms]
[OGL LOG][lduLduBase.H:380] 
Statistics:
	Time per iteration: 12809 [mu s]
	Time per iteration and DOF: 0.102472 [ns]
	Retrieve results bandwith 2.012000 [GByte/s]
nonecudaGKOCG:  Solving for p, Initial residual = 0.0119869, Final residual = 5.44953e-05, No Iterations 3651
linear solve p 48944904
time step continuity errors : sum local = 6.15587e-11, global = -1.17754e-22, cumulative = -1.34439e-22
[OGL LOG][Proc: 0]global_index_init: 0.006 [ms]
[OGL LOG][Proc: 0]global_index_init: 0.001 [ms]
[OGL LOG][Proc: 0]update_host_matrix_data: 1103.19 [ms]
[OGL LOG][Proc: 0]gather_global_matrix: 0 [ms]
[OGL LOG][Proc: 0]generate_distributed_matrix: 571.142 [ms]
[OGL LOG][Proc: 0]init_precond: 0.036 [ms]
[OGL LOG][Proc: 0]generate_solver: 0.002 [ms]
[OGL LOG][Proc: 0]solve: 46787.5 [ms]
[OGL LOG][Proc: 0]copy_x_back: 165.017 [ms]
[OGL LOG][lduLduBase.H:380] 
Statistics:
	Time per iteration: 12814 [mu s]
	Time per iteration and DOF: 0.102512 [ns]
	Retrieve results bandwith 2.019000 [GByte/s]
nonecudaGKOCG:  Solving for p, Initial residual = 0.0113927, Final residual = 5.21497e-05, No Iterations 3651
linear solve p 48971785
time step continuity errors : sum local = 5.89239e-11, global = 4.64879e-23, cumulative = -8.79512e-23
ExecutionTime = 13266 s  ClockTime = 13315 s

Time = 0.00038

Courant Number mean: 0.00464716 max: 0.0967457
DILUPBiCGStab:  Solving for Ux, Initial residual = 0.00816505, Final residual = 5.35677e-06, No Iterations 5
DILUPBiCGStab:  Solving for Uy, Initial residual = 0.0130373, Final residual = 2.97913e-06, No Iterations 5
DILUPBiCGStab:  Solving for Uz, Initial residual = 0.0246834, Final residual = 1.46474e-05, No Iterations 5
linear solve U 58104314
[OGL LOG][Proc: 0]global_index_init: 0.006 [ms]
[OGL LOG][Proc: 0]global_index_init: 0.001 [ms]
[OGL LOG][Proc: 0]update_host_matrix_data: 1111.29 [ms]
[OGL LOG][Proc: 0]gather_global_matrix: 0 [ms]
[OGL LOG][Proc: 0]generate_distributed_matrix: 592.034 [ms]
[OGL LOG][Proc: 0]init_precond: 0.038 [ms]
[OGL LOG][Proc: 0]generate_solver: 0.002 [ms]
[OGL LOG][Proc: 0]solve: 37819.7 [ms]
[OGL LOG][Proc: 0]copy_x_back: 165.654 [ms]
[OGL LOG][lduLduBase.H:380] 
Statistics:
	Time per iteration: 12947 [mu s]
	Time per iteration and DOF: 0.103576 [ns]
	Retrieve results bandwith 2.012000 [GByte/s]
nonecudaGKOCG:  Solving for p, Initial residual = 0.0109683, Final residual = 9.0294e-05, No Iterations 2921
linear solve p 40034041
time step continuity errors : sum local = 1.02435e-10, global = 2.86984e-23, cumulative = -5.92529e-23
[OGL LOG][Proc: 0]global_index_init: 0.006 [ms]
[OGL LOG][Proc: 0]global_index_init: 0.001 [ms]
[OGL LOG][Proc: 0]update_host_matrix_data: 1103.34 [ms]
[OGL LOG][Proc: 0]gather_global_matrix: 0 [ms]
[OGL LOG][Proc: 0]generate_distributed_matrix: 562.114 [ms]
[OGL LOG][Proc: 0]init_precond: 0.033 [ms]
[OGL LOG][Proc: 0]generate_solver: 0.002 [ms]
[OGL LOG][Proc: 0]solve: 31899.8 [ms]
[OGL LOG][Proc: 0]copy_x_back: 165.555 [ms]
[OGL LOG][lduLduBase.H:380] 
Statistics:
	Time per iteration: 13089 [mu s]
	Time per iteration and DOF: 0.104712 [ns]
	Retrieve results bandwith 2.013000 [GByte/s]
nonecudaGKOCG:  Solving for p, Initial residual = 0.010469, Final residual = 1.71869e-06, No Iterations 2437
linear solve p 34075189
time step continuity errors : sum local = 2.06942e-12, global = 2.84495e-23, cumulative = -3.08033e-23
ExecutionTime = 13437.3 s  ClockTime = 13488 s

Time = 0.0004

Courant Number mean: 0.00475769 max: 0.09683
DILUPBiCGStab:  Solving for Ux, Initial residual = 0.00776721, Final residual = 4.91473e-06, No Iterations 5
DILUPBiCGStab:  Solving for Uy, Initial residual = 0.0123256, Final residual = 2.74425e-06, No Iterations 5
DILUPBiCGStab:  Solving for Uz, Initial residual = 0.0236745, Final residual = 1.3358e-05, No Iterations 5
linear solve U 58148794
[OGL LOG][Proc: 0]global_index_init: 0.006 [ms]
[OGL LOG][Proc: 0]global_index_init: 0 [ms]
[OGL LOG][Proc: 0]update_host_matrix_data: 1106.81 [ms]
[OGL LOG][Proc: 0]gather_global_matrix: 0 [ms]
[OGL LOG][Proc: 0]generate_distributed_matrix: 567.031 [ms]
[OGL LOG][Proc: 0]init_precond: 0.037 [ms]
[OGL LOG][Proc: 0]generate_solver: 0.002 [ms]
[OGL LOG][Proc: 0]solve: 26956.1 [ms]
[OGL LOG][Proc: 0]copy_x_back: 166.189 [ms]
[OGL LOG][lduLduBase.H:380] 
Statistics:
	Time per iteration: 13226 [mu s]
	Time per iteration and DOF: 0.105808 [ns]
	Retrieve results bandwith 2.005000 [GByte/s]
nonecudaGKOCG:  Solving for p, Initial residual = 0.0100378, Final residual = 3.91641e-06, No Iterations 2038
linear solve p 29142295
time step continuity errors : sum local = 4.43544e-12, global = -2.84465e-23, cumulative = -5.92498e-23
[OGL LOG][Proc: 0]global_index_init: 0.006 [ms]
[OGL LOG][Proc: 0]global_index_init: 0.001 [ms]
[OGL LOG][Proc: 0]update_host_matrix_data: 1106.87 [ms]
[OGL LOG][Proc: 0]gather_global_matrix: 0 [ms]
[OGL LOG][Proc: 0]generate_distributed_matrix: 568.24 [ms]
[OGL LOG][Proc: 0]init_precond: 0.042 [ms]
[OGL LOG][Proc: 0]generate_solver: 0.002 [ms]
[OGL LOG][Proc: 0]solve: 22838.8 [ms]
[OGL LOG][Proc: 0]copy_x_back: 165.408 [ms]
[OGL LOG][lduLduBase.H:380] 
Statistics:
	Time per iteration: 13418 [mu s]
	Time per iteration and DOF: 0.107344 [ns]
	Retrieve results bandwith 2.015000 [GByte/s]
nonecudaGKOCG:  Solving for p, Initial residual = 0.00962566, Final residual = 2.74346e-05, No Iterations 1702
linear solve p 25024073
time step continuity errors : sum local = 3.09941e-11, global = -4.38066e-24, cumulative = -6.36305e-23
ExecutionTime = 13589 s  ClockTime = 13641 s

End

Finalising parallel run
================================================================================
hash: 4087e11ab104adbe64f3ea4fb654ca05
/*---------------------------------------------------------------------------*\
| =========                 |                                                 |
| \\      /  F ield         | OpenFOAM: The Open Source CFD Toolbox           |
|  \\    /   O peration     | Version:  2112                                  |
|   \\  /    A nd           | Website:  www.openfoam.com                      |
|    \\/     M anipulation  |                                                 |
\*---------------------------------------------------------------------------*/
Build  : d44c8318f0-20220111 OPENFOAM=2112 version=v2112
Arch   : "LSB;label=32;scalar=64"
Exec   : icoFoam -parallel
Date   : Jun 29 2022
Time   : 01:08:56
Host   : hkn0804.localdomain
PID    : 215558
I/O    : uncollated
Case   : /hkfs/work/workspace/scratch/eq4036-lidDrivenCavity/simple/mesh/500/matrix_solver/CG_NoPrecond_CUDA/mpiRank_gko/2/base
nProcs : 2
Hosts  :
(
    (hkn0804.localdomain 2)
)
Pstream initialized with:
    floatTransfer      : 0
    nProcsSimpleSum    : 0
    commsType          : nonBlocking
    polling iterations : 0
trapFpe: Floating point exception trapping enabled (FOAM_SIGFPE).
fileModificationChecking : Monitoring run-time modified files using timeStampMaster (fileModificationSkew 5, maxFileModificationPolls 20)
allowSystemOperations : Allowing user-supplied system call operations

// * * * * * * * * * * * * * * * * * * * * * * * * * * * * * * * * * * * * * //
Create time

Create mesh for time = 0


PISO: Operating solver in PISO mode

Reading transportProperties

Reading field p

Reading field U

Reading/calculating face flux field phi


Starting time loop

Time = 2e-05

Courant Number mean: 0 max: 0
DILUPBiCGStab:  Solving for Ux, Initial residual = 1, Final residual = 0.00221092, No Iterations 5
DILUPBiCGStab:  Solving for Uy:  solution singularity
DILUPBiCGStab:  Solving for Uz:  solution singularity
linear solve U 41509125
[OGL LOG][Proc: 0]global_index_init: 0.036 [ms]
[OGL LOG][Proc: 0]global_index_init: 0.001 [ms]
[OGL LOG][Proc: 0]init_host_sparsity_pattern: 7.24399e+06 [ms]
[OGL LOG][Proc: 0]update_host_matrix_data: 1794.96 [ms]
[OGL LOG][Proc: 0]convert_coo_to_csr: 2576.92 [ms]
[OGL LOG][lduLduBase.H:153] Initialising OGL
	Version:  484b851
	branch: HEAD 
	Ginkgo version: 1.5.0(develop)
	MPI is GPU aware: 1)
	Forces host buffer based communication: 1
[OGL LOG][Proc: 0]gather_global_matrix: 0.004 [ms]
[OGL LOG][Proc: 0]generate_distributed_matrix: 777.614 [ms]
[OGL LOG][Proc: 0]init_precond: 0.069 [ms]
[OGL LOG][Proc: 0]generate_solver: 0.014 [ms]
[OGL LOG][Proc: 0]solve: 70117.8 [ms]
[OGL LOG][Proc: 0]copy_x_back: 237.605 [ms]
[OGL LOG][lduLduBase.H:380] 
Statistics:
	Time per iteration: 17060 [mu s]
	Time per iteration and DOF: 0.136480 [ns]
	Retrieve results bandwith 2.104000 [GByte/s]
nonecudaGKOCG:  Solving for p, Initial residual = 1, Final residual = 9.99713e-05, No Iterations 4110
linear solve p -1267142789
time step continuity errors : sum local = 1.73236e-10, global = 1.49588e-22, cumulative = 1.49588e-22
[OGL LOG][Proc: 0]global_index_init: 0.006 [ms]
[OGL LOG][Proc: 0]global_index_init: 0 [ms]
[OGL LOG][Proc: 0]update_host_matrix_data: 1572.51 [ms]
[OGL LOG][Proc: 0]gather_global_matrix: 0 [ms]
[OGL LOG][Proc: 0]generate_distributed_matrix: 811.364 [ms]
[OGL LOG][Proc: 0]init_precond: 0.046 [ms]
[OGL LOG][Proc: 0]generate_solver: 0.002 [ms]
[OGL LOG][Proc: 0]solve: 68448.6 [ms]
[OGL LOG][Proc: 0]copy_x_back: 237.539 [ms]
[OGL LOG][lduLduBase.H:380] 
Statistics:
	Time per iteration: 16690 [mu s]
	Time per iteration and DOF: 0.133520 [ns]
	Retrieve results bandwith 2.104000 [GByte/s]
nonecudaGKOCG:  Solving for p, Initial residual = 0.736007, Final residual = 7.70952e-05, No Iterations 4101
linear solve p 71544460
time step continuity errors : sum local = 1.76709e-10, global = 2.98745e-23, cumulative = 1.79463e-22
ExecutionTime = 7693.6 s  ClockTime = 7708 s

Time = 4e-05

Courant Number mean: 0.00105578 max: 0.0776342
DILUPBiCGStab:  Solving for Ux, Initial residual = 0.150267, Final residual = 0.00131032, No Iterations 5
DILUPBiCGStab:  Solving for Uy, Initial residual = 0.356029, Final residual = 0.00122663, No Iterations 5
DILUPBiCGStab:  Solving for Uz, Initial residual = 0.997766, Final residual = 0.00570223, No Iterations 5
linear solve U 84362954
[OGL LOG][Proc: 0]global_index_init: 0.007 [ms]
[OGL LOG][Proc: 0]global_index_init: 0.002 [ms]
[OGL LOG][Proc: 0]update_host_matrix_data: 1573.05 [ms]
[OGL LOG][Proc: 0]gather_global_matrix: 0 [ms]
[OGL LOG][Proc: 0]generate_distributed_matrix: 857.871 [ms]
[OGL LOG][Proc: 0]init_precond: 0.039 [ms]
[OGL LOG][Proc: 0]generate_solver: 0.002 [ms]
[OGL LOG][Proc: 0]solve: 68185.6 [ms]
[OGL LOG][Proc: 0]copy_x_back: 237.38 [ms]
[OGL LOG][lduLduBase.H:380] 
Statistics:
	Time per iteration: 16626 [mu s]
	Time per iteration and DOF: 0.133008 [ns]
	Retrieve results bandwith 2.106000 [GByte/s]
nonecudaGKOCG:  Solving for p, Initial residual = 0.700069, Final residual = 4.42141e-05, No Iterations 4101
linear solve p 71333344
time step continuity errors : sum local = 1.1658e-10, global = 1.08061e-23, cumulative = 1.90269e-22
[OGL LOG][Proc: 0]global_index_init: 0.006 [ms]
[OGL LOG][Proc: 0]global_index_init: 0.001 [ms]
[OGL LOG][Proc: 0]update_host_matrix_data: 1571.27 [ms]
[OGL LOG][Proc: 0]gather_global_matrix: 0 [ms]
[OGL LOG][Proc: 0]generate_distributed_matrix: 823.921 [ms]
[OGL LOG][Proc: 0]init_precond: 0.04 [ms]
[OGL LOG][Proc: 0]generate_solver: 0.003 [ms]
[OGL LOG][Proc: 0]solve: 68133 [ms]
[OGL LOG][Proc: 0]copy_x_back: 237.001 [ms]
[OGL LOG][lduLduBase.H:380] 
Statistics:
	Time per iteration: 16613 [mu s]
	Time per iteration and DOF: 0.132904 [ns]
	Retrieve results bandwith 2.109000 [GByte/s]
nonecudaGKOCG:  Solving for p, Initial residual = 0.632911, Final residual = 4.04696e-05, No Iterations 4101
linear solve p 71241107
time step continuity errors : sum local = 1.08335e-10, global = 4.71724e-23, cumulative = 2.37441e-22
ExecutionTime = 7977.25 s  ClockTime = 7993 s

Time = 6e-05

Courant Number mean: 0.0016071 max: 0.0884744
DILUPBiCGStab:  Solving for Ux, Initial residual = 0.0623697, Final residual = 0.000343624, No Iterations 5
DILUPBiCGStab:  Solving for Uy, Initial residual = 0.140286, Final residual = 0.000242898, No Iterations 5
DILUPBiCGStab:  Solving for Uz, Initial residual = 0.661027, Final residual = 0.00413159, No Iterations 5
linear solve U 84293534
[OGL LOG][Proc: 0]global_index_init: 0.006 [ms]
[OGL LOG][Proc: 0]global_index_init: 0 [ms]
[OGL LOG][Proc: 0]update_host_matrix_data: 1563.46 [ms]
[OGL LOG][Proc: 0]gather_global_matrix: 0 [ms]
[OGL LOG][Proc: 0]generate_distributed_matrix: 895.856 [ms]
[OGL LOG][Proc: 0]init_precond: 0.037 [ms]
[OGL LOG][Proc: 0]generate_solver: 0.002 [ms]
[OGL LOG][Proc: 0]solve: 65524.6 [ms]
[OGL LOG][Proc: 0]copy_x_back: 239.097 [ms]
[OGL LOG][lduLduBase.H:380] 
Statistics:
	Time per iteration: 16643 [mu s]
	Time per iteration and DOF: 0.133144 [ns]
	Retrieve results bandwith 2.091000 [GByte/s]
nonecudaGKOCG:  Solving for p, Initial residual = 0.651186, Final residual = 7.80654e-05, No Iterations 3937
linear solve p 68698955
time step continuity errors : sum local = 1.51901e-10, global = 2.70494e-23, cumulative = 2.6449e-22
[OGL LOG][Proc: 0]global_index_init: 0.01 [ms]
[OGL LOG][Proc: 0]global_index_init: 0 [ms]
[OGL LOG][Proc: 0]update_host_matrix_data: 1572.71 [ms]
[OGL LOG][Proc: 0]gather_global_matrix: 0 [ms]
[OGL LOG][Proc: 0]generate_distributed_matrix: 838.242 [ms]
[OGL LOG][Proc: 0]init_precond: 0.035 [ms]
[OGL LOG][Proc: 0]generate_solver: 0.001 [ms]
[OGL LOG][Proc: 0]solve: 65403.2 [ms]
[OGL LOG][Proc: 0]copy_x_back: 235.932 [ms]
[OGL LOG][lduLduBase.H:380] 
Statistics:
	Time per iteration: 16658 [mu s]
	Time per iteration and DOF: 0.133264 [ns]
	Retrieve results bandwith 2.119000 [GByte/s]
nonecudaGKOCG:  Solving for p, Initial residual = 0.598488, Final residual = 7.7923e-05, No Iterations 3926
linear solve p 68531183
time step continuity errors : sum local = 1.48333e-10, global = -2.46382e-24, cumulative = 2.62027e-22
ExecutionTime = 8255.62 s  ClockTime = 8274 s

Time = 8e-05

Courant Number mean: 0.00199295 max: 0.0913808
DILUPBiCGStab:  Solving for Ux, Initial residual = 0.0414945, Final residual = 0.000159701, No Iterations 5
DILUPBiCGStab:  Solving for Uy, Initial residual = 0.0887131, Final residual = 0.000138059, No Iterations 5
DILUPBiCGStab:  Solving for Uz, Initial residual = 0.161317, Final residual = 0.000691711, No Iterations 5
linear solve U 84298076
[OGL LOG][Proc: 0]global_index_init: 0.007 [ms]
[OGL LOG][Proc: 0]global_index_init: 0 [ms]
[OGL LOG][Proc: 0]update_host_matrix_data: 1568.46 [ms]
[OGL LOG][Proc: 0]gather_global_matrix: 0 [ms]
[OGL LOG][Proc: 0]generate_distributed_matrix: 812.484 [ms]
[OGL LOG][Proc: 0]init_precond: 0.033 [ms]
[OGL LOG][Proc: 0]generate_solver: 0.001 [ms]
[OGL LOG][Proc: 0]solve: 65387.5 [ms]
[OGL LOG][Proc: 0]copy_x_back: 237.796 [ms]
[OGL LOG][lduLduBase.H:380] 
Statistics:
	Time per iteration: 16654 [mu s]
	Time per iteration and DOF: 0.133232 [ns]
	Retrieve results bandwith 2.102000 [GByte/s]
nonecudaGKOCG:  Solving for p, Initial residual = 0.424817, Final residual = 3.8045e-05, No Iterations 3926
linear solve p 68481806
time step continuity errors : sum local = 6.12003e-11, global = -2.29041e-23, cumulative = 2.39122e-22
[OGL LOG][Proc: 0]global_index_init: 0.007 [ms]
[OGL LOG][Proc: 0]global_index_init: 0 [ms]
[OGL LOG][Proc: 0]update_host_matrix_data: 1569.64 [ms]
[OGL LOG][Proc: 0]gather_global_matrix: 0 [ms]
[OGL LOG][Proc: 0]generate_distributed_matrix: 911.046 [ms]
[OGL LOG][Proc: 0]init_precond: 0.036 [ms]
[OGL LOG][Proc: 0]generate_solver: 0.002 [ms]
[OGL LOG][Proc: 0]solve: 65368.4 [ms]
[OGL LOG][Proc: 0]copy_x_back: 237.605 [ms]
[OGL LOG][lduLduBase.H:380] 
Statistics:
	Time per iteration: 16650 [mu s]
	Time per iteration and DOF: 0.133200 [ns]
	Retrieve results bandwith 2.104000 [GByte/s]
nonecudaGKOCG:  Solving for p, Initial residual = 0.362668, Final residual = 3.4584e-05, No Iterations 3926
linear solve p 68562890
time step continuity errors : sum local = 5.60343e-11, global = 3.90554e-24, cumulative = 2.43028e-22
ExecutionTime = 8533.92 s  ClockTime = 8554 s

Time = 0.0001

Courant Number mean: 0.00230681 max: 0.092787
DILUPBiCGStab:  Solving for Ux, Initial residual = 0.031813, Final residual = 8.18459e-05, No Iterations 5
DILUPBiCGStab:  Solving for Uy, Initial residual = 0.0636163, Final residual = 7.14874e-05, No Iterations 5
DILUPBiCGStab:  Solving for Uz, Initial residual = 0.0894804, Final residual = 0.000304552, No Iterations 5
linear solve U 84341420
[OGL LOG][Proc: 0]global_index_init: 0.007 [ms]
[OGL LOG][Proc: 0]global_index_init: 0 [ms]
[OGL LOG][Proc: 0]update_host_matrix_data: 1567.29 [ms]
[OGL LOG][Proc: 0]gather_global_matrix: 0 [ms]
[OGL LOG][Proc: 0]generate_distributed_matrix: 829.084 [ms]
[OGL LOG][Proc: 0]init_precond: 0.034 [ms]
[OGL LOG][Proc: 0]generate_solver: 0.002 [ms]
[OGL LOG][Proc: 0]solve: 62864.1 [ms]
[OGL LOG][Proc: 0]copy_x_back: 237.537 [ms]
[OGL LOG][lduLduBase.H:380] 
Statistics:
	Time per iteration: 16679 [mu s]
	Time per iteration and DOF: 0.133432 [ns]
	Retrieve results bandwith 2.104000 [GByte/s]
nonecudaGKOCG:  Solving for p, Initial residual = 0.328044, Final residual = 9.85693e-05, No Iterations 3769
linear solve p 65972883
time step continuity errors : sum local = 1.31615e-10, global = -8.32169e-24, cumulative = 2.34706e-22
[OGL LOG][Proc: 0]global_index_init: 0.006 [ms]
[OGL LOG][Proc: 0]global_index_init: 0 [ms]
[OGL LOG][Proc: 0]update_host_matrix_data: 1569.52 [ms]
[OGL LOG][Proc: 0]gather_global_matrix: 0 [ms]
[OGL LOG][Proc: 0]generate_distributed_matrix: 904.502 [ms]
[OGL LOG][Proc: 0]init_precond: 0.037 [ms]
[OGL LOG][Proc: 0]generate_solver: 0.002 [ms]
[OGL LOG][Proc: 0]solve: 65007 [ms]
[OGL LOG][Proc: 0]copy_x_back: 237.697 [ms]
[OGL LOG][lduLduBase.H:380] 
Statistics:
	Time per iteration: 16664 [mu s]
	Time per iteration and DOF: 0.133312 [ns]
	Retrieve results bandwith 2.103000 [GByte/s]
nonecudaGKOCG:  Solving for p, Initial residual = 0.281452, Final residual = 3.80754e-05, No Iterations 3901
linear solve p 68194463
time step continuity errors : sum local = 5.05394e-11, global = -2.2999e-23, cumulative = 2.11707e-22
ExecutionTime = 8809.32 s  ClockTime = 8831 s

Time = 0.00012

Courant Number mean: 0.00257542 max: 0.0936646
DILUPBiCGStab:  Solving for Ux, Initial residual = 0.0259261, Final residual = 6.12197e-05, No Iterations 5
DILUPBiCGStab:  Solving for Uy, Initial residual = 0.050042, Final residual = 3.79068e-05, No Iterations 5
DILUPBiCGStab:  Solving for Uz, Initial residual = 0.0787642, Final residual = 0.000272642, No Iterations 5
linear solve U 84313148
[OGL LOG][Proc: 0]global_index_init: 0.006 [ms]
[OGL LOG][Proc: 0]global_index_init: 0 [ms]
[OGL LOG][Proc: 0]update_host_matrix_data: 1567.51 [ms]
[OGL LOG][Proc: 0]gather_global_matrix: 0 [ms]
[OGL LOG][Proc: 0]generate_distributed_matrix: 840.309 [ms]
[OGL LOG][Proc: 0]init_precond: 0.037 [ms]
[OGL LOG][Proc: 0]generate_solver: 0.002 [ms]
[OGL LOG][Proc: 0]solve: 65006.1 [ms]
[OGL LOG][Proc: 0]copy_x_back: 238.088 [ms]
[OGL LOG][lduLduBase.H:380] 
Statistics:
	Time per iteration: 16663 [mu s]
	Time per iteration and DOF: 0.133304 [ns]
	Retrieve results bandwith 2.100000 [GByte/s]
nonecudaGKOCG:  Solving for p, Initial residual = 0.207598, Final residual = 3.54758e-05, No Iterations 3901
linear solve p 68127644
time step continuity errors : sum local = 4.51863e-11, global = -6.09416e-25, cumulative = 2.11098e-22
[OGL LOG][Proc: 0]global_index_init: 0.007 [ms]
[OGL LOG][Proc: 0]global_index_init: 0 [ms]
[OGL LOG][Proc: 0]update_host_matrix_data: 1569.98 [ms]
[OGL LOG][Proc: 0]gather_global_matrix: 0 [ms]
[OGL LOG][Proc: 0]generate_distributed_matrix: 845.234 [ms]
[OGL LOG][Proc: 0]init_precond: 0.037 [ms]
[OGL LOG][Proc: 0]generate_solver: 0.002 [ms]
[OGL LOG][Proc: 0]solve: 64964.5 [ms]
[OGL LOG][Proc: 0]copy_x_back: 235.954 [ms]
[OGL LOG][lduLduBase.H:380] 
Statistics:
	Time per iteration: 16653 [mu s]
	Time per iteration and DOF: 0.133224 [ns]
	Retrieve results bandwith 2.119000 [GByte/s]
nonecudaGKOCG:  Solving for p, Initial residual = 0.17337, Final residual = 3.32728e-05, No Iterations 3901
linear solve p 68093547
time step continuity errors : sum local = 4.23634e-11, global = 3.33124e-23, cumulative = 2.4441e-22
ExecutionTime = 9086.64 s  ClockTime = 9111 s

Time = 0.00014

Courant Number mean: 0.00281293 max: 0.0942765
DILUPBiCGStab:  Solving for Ux, Initial residual = 0.0220094, Final residual = 4.13766e-05, No Iterations 5
DILUPBiCGStab:  Solving for Uy, Initial residual = 0.0411029, Final residual = 2.91989e-05, No Iterations 5
DILUPBiCGStab:  Solving for Uz, Initial residual = 0.0656504, Final residual = 0.00015304, No Iterations 5
linear solve U 84342906
[OGL LOG][Proc: 0]global_index_init: 0.006 [ms]
[OGL LOG][Proc: 0]global_index_init: 0 [ms]
[OGL LOG][Proc: 0]update_host_matrix_data: 1579.22 [ms]
[OGL LOG][Proc: 0]gather_global_matrix: 0 [ms]
[OGL LOG][Proc: 0]generate_distributed_matrix: 882.148 [ms]
[OGL LOG][Proc: 0]init_precond: 0.047 [ms]
[OGL LOG][Proc: 0]generate_solver: 0.002 [ms]
[OGL LOG][Proc: 0]solve: 62478.8 [ms]
[OGL LOG][Proc: 0]copy_x_back: 238.04 [ms]
[OGL LOG][lduLduBase.H:380] 
Statistics:
	Time per iteration: 16683 [mu s]
	Time per iteration and DOF: 0.133464 [ns]
	Retrieve results bandwith 2.100000 [GByte/s]
nonecudaGKOCG:  Solving for p, Initial residual = 0.150297, Final residual = 8.7515e-05, No Iterations 3745
linear solve p 65654440
time step continuity errors : sum local = 1.0597e-10, global = -3.64748e-24, cumulative = 2.40763e-22
[OGL LOG][Proc: 0]global_index_init: 0.01 [ms]
[OGL LOG][Proc: 0]global_index_init: 0 [ms]
[OGL LOG][Proc: 0]update_host_matrix_data: 1574.8 [ms]
[OGL LOG][Proc: 0]gather_global_matrix: 0 [ms]
[OGL LOG][Proc: 0]generate_distributed_matrix: 848.478 [ms]
[OGL LOG][Proc: 0]init_precond: 0.035 [ms]
[OGL LOG][Proc: 0]generate_solver: 0.002 [ms]
[OGL LOG][Proc: 0]solve: 64602.6 [ms]
[OGL LOG][Proc: 0]copy_x_back: 237.823 [ms]
[OGL LOG][lduLduBase.H:380] 
Statistics:
	Time per iteration: 16671 [mu s]
	Time per iteration and DOF: 0.133368 [ns]
	Retrieve results bandwith 2.102000 [GByte/s]
nonecudaGKOCG:  Solving for p, Initial residual = 0.126339, Final residual = 3.69125e-05, No Iterations 3875
linear solve p 67738815
time step continuity errors : sum local = 4.46953e-11, global = 1.17606e-23, cumulative = 2.52523e-22
ExecutionTime = 9361.1 s  ClockTime = 9387 s

Time = 0.00016

Courant Number mean: 0.00302714 max: 0.094736
DILUPBiCGStab:  Solving for Ux, Initial residual = 0.0191749, Final residual = 3.07311e-05, No Iterations 5
DILUPBiCGStab:  Solving for Uy, Initial residual = 0.0349128, Final residual = 1.42087e-05, No Iterations 5
DILUPBiCGStab:  Solving for Uz, Initial residual = 0.058306, Final residual = 0.000104231, No Iterations 5
linear solve U 84314059
[OGL LOG][Proc: 0]global_index_init: 0.006 [ms]
[OGL LOG][Proc: 0]global_index_init: 0 [ms]
[OGL LOG][Proc: 0]update_host_matrix_data: 1568.56 [ms]
[OGL LOG][Proc: 0]gather_global_matrix: 0 [ms]
[OGL LOG][Proc: 0]generate_distributed_matrix: 813.651 [ms]
[OGL LOG][Proc: 0]init_precond: 0.032 [ms]
[OGL LOG][Proc: 0]generate_solver: 0.002 [ms]
[OGL LOG][Proc: 0]solve: 62125.4 [ms]
[OGL LOG][Proc: 0]copy_x_back: 238.255 [ms]
[OGL LOG][lduLduBase.H:380] 
Statistics:
	Time per iteration: 16695 [mu s]
	Time per iteration and DOF: 0.133560 [ns]
	Retrieve results bandwith 2.098000 [GByte/s]
nonecudaGKOCG:  Solving for p, Initial residual = 0.0991532, Final residual = 9.77407e-05, No Iterations 3721
linear solve p 65220743
time step continuity errors : sum local = 1.15498e-10, global = -1.51797e-23, cumulative = 2.37344e-22
[OGL LOG][Proc: 0]global_index_init: 0.007 [ms]
[OGL LOG][Proc: 0]global_index_init: 0 [ms]
[OGL LOG][Proc: 0]update_host_matrix_data: 1569.65 [ms]
[OGL LOG][Proc: 0]gather_global_matrix: 0 [ms]
[OGL LOG][Proc: 0]generate_distributed_matrix: 822.352 [ms]
[OGL LOG][Proc: 0]init_precond: 0.036 [ms]
[OGL LOG][Proc: 0]generate_solver: 0.002 [ms]
[OGL LOG][Proc: 0]solve: 61772.5 [ms]
[OGL LOG][Proc: 0]copy_x_back: 237.249 [ms]
[OGL LOG][lduLduBase.H:380] 
Statistics:
	Time per iteration: 16690 [mu s]
	Time per iteration and DOF: 0.133520 [ns]
	Retrieve results bandwith 2.107000 [GByte/s]
nonecudaGKOCG:  Solving for p, Initial residual = 0.082543, Final residual = 9.91764e-05, No Iterations 3701
linear solve p 64891863
time step continuity errors : sum local = 1.1713e-10, global = -1.23299e-23, cumulative = 2.25014e-22
ExecutionTime = 9632.46 s  ClockTime = 9660 s

Time = 0.00018

Courant Number mean: 0.00322321 max: 0.0950968
DILUPBiCGStab:  Solving for Ux, Initial residual = 0.0170098, Final residual = 2.22634e-05, No Iterations 5
DILUPBiCGStab:  Solving for Uy, Initial residual = 0.0303376, Final residual = 1.25923e-05, No Iterations 5
DILUPBiCGStab:  Solving for Uz, Initial residual = 0.0514085, Final residual = 7.58961e-05, No Iterations 5
linear solve U 84300011
[OGL LOG][Proc: 0]global_index_init: 0.007 [ms]
[OGL LOG][Proc: 0]global_index_init: 0 [ms]
[OGL LOG][Proc: 0]update_host_matrix_data: 1568.91 [ms]
[OGL LOG][Proc: 0]gather_global_matrix: 0 [ms]
[OGL LOG][Proc: 0]generate_distributed_matrix: 821.441 [ms]
[OGL LOG][Proc: 0]init_precond: 0.035 [ms]
[OGL LOG][Proc: 0]generate_solver: 0.002 [ms]
[OGL LOG][Proc: 0]solve: 64143.3 [ms]
[OGL LOG][Proc: 0]copy_x_back: 238.142 [ms]
[OGL LOG][lduLduBase.H:380] 
Statistics:
	Time per iteration: 16664 [mu s]
	Time per iteration and DOF: 0.133312 [ns]
	Retrieve results bandwith 2.099000 [GByte/s]
nonecudaGKOCG:  Solving for p, Initial residual = 0.0747947, Final residual = 4.63098e-05, No Iterations 3849
linear solve p 67248335
time step continuity errors : sum local = 5.38205e-11, global = 5.94507e-23, cumulative = 2.84465e-22
[OGL LOG][Proc: 0]global_index_init: 0.007 [ms]
[OGL LOG][Proc: 0]global_index_init: 0 [ms]
[OGL LOG][Proc: 0]update_host_matrix_data: 1569.05 [ms]
[OGL LOG][Proc: 0]gather_global_matrix: 0 [ms]
[OGL LOG][Proc: 0]generate_distributed_matrix: 827.228 [ms]
[OGL LOG][Proc: 0]init_precond: 0.034 [ms]
[OGL LOG][Proc: 0]generate_solver: 0.002 [ms]
[OGL LOG][Proc: 0]solve: 63810.3 [ms]
[OGL LOG][Proc: 0]copy_x_back: 238.334 [ms]
[OGL LOG][lduLduBase.H:380] 
Statistics:
	Time per iteration: 16678 [mu s]
	Time per iteration and DOF: 0.133424 [ns]
	Retrieve results bandwith 2.097000 [GByte/s]
nonecudaGKOCG:  Solving for p, Initial residual = 0.0626105, Final residual = 6.92412e-05, No Iterations 3826
linear solve p 66920923
time step continuity errors : sum local = 8.04893e-11, global = -4.28747e-23, cumulative = 2.4159e-22
ExecutionTime = 9907.93 s  ClockTime = 9937 s

Time = 0.0002

Courant Number mean: 0.00340458 max: 0.0953899
DILUPBiCGStab:  Solving for Ux, Initial residual = 0.0153111, Final residual = 1.73481e-05, No Iterations 5
DILUPBiCGStab:  Solving for Uy, Initial residual = 0.0268128, Final residual = 6.91855e-06, No Iterations 5
DILUPBiCGStab:  Solving for Uz, Initial residual = 0.0469755, Final residual = 5.58159e-05, No Iterations 5
linear solve U 84358277
[OGL LOG][Proc: 0]global_index_init: 0.007 [ms]
[OGL LOG][Proc: 0]global_index_init: 0.001 [ms]
[OGL LOG][Proc: 0]update_host_matrix_data: 1569.55 [ms]
[OGL LOG][Proc: 0]gather_global_matrix: 0 [ms]
[OGL LOG][Proc: 0]generate_distributed_matrix: 839.707 [ms]
[OGL LOG][Proc: 0]init_precond: 0.036 [ms]
[OGL LOG][Proc: 0]generate_solver: 0.002 [ms]
[OGL LOG][Proc: 0]solve: 63818.2 [ms]
[OGL LOG][Proc: 0]copy_x_back: 238.805 [ms]
[OGL LOG][lduLduBase.H:380] 
Statistics:
	Time per iteration: 16680 [mu s]
	Time per iteration and DOF: 0.133440 [ns]
	Retrieve results bandwith 2.093000 [GByte/s]
nonecudaGKOCG:  Solving for p, Initial residual = 0.0498788, Final residual = 4.49661e-05, No Iterations 3826
linear solve p 66941849
time step continuity errors : sum local = 5.16069e-11, global = -5.35658e-23, cumulative = 1.88024e-22
[OGL LOG][Proc: 0]global_index_init: 0.006 [ms]
[OGL LOG][Proc: 0]global_index_init: 0 [ms]
[OGL LOG][Proc: 0]update_host_matrix_data: 1569.33 [ms]
[OGL LOG][Proc: 0]gather_global_matrix: 0 [ms]
[OGL LOG][Proc: 0]generate_distributed_matrix: 910.831 [ms]
[OGL LOG][Proc: 0]init_precond: 0.041 [ms]
[OGL LOG][Proc: 0]generate_solver: 0.002 [ms]
[OGL LOG][Proc: 0]solve: 63762.3 [ms]
[OGL LOG][Proc: 0]copy_x_back: 238.415 [ms]
[OGL LOG][lduLduBase.H:380] 
Statistics:
	Time per iteration: 16665 [mu s]
	Time per iteration and DOF: 0.133320 [ns]
	Retrieve results bandwith 2.097000 [GByte/s]
nonecudaGKOCG:  Solving for p, Initial residual = 0.0422968, Final residual = 4.33824e-05, No Iterations 3826
linear solve p 66957142
time step continuity errors : sum local = 4.97958e-11, global = 5.2178e-23, cumulative = 2.40202e-22
ExecutionTime = 10183 s  ClockTime = 10215 s

Time = 0.00022

Courant Number mean: 0.00357377 max: 0.0956344
DILUPBiCGStab:  Solving for Ux, Initial residual = 0.0139267, Final residual = 1.34664e-05, No Iterations 5
DILUPBiCGStab:  Solving for Uy, Initial residual = 0.024021, Final residual = 6.23673e-06, No Iterations 5
DILUPBiCGStab:  Solving for Uz, Initial residual = 0.042742, Final residual = 4.31783e-05, No Iterations 5
linear solve U 84423246
[OGL LOG][Proc: 0]global_index_init: 0.007 [ms]
[OGL LOG][Proc: 0]global_index_init: 0 [ms]
[OGL LOG][Proc: 0]update_host_matrix_data: 1569.15 [ms]
[OGL LOG][Proc: 0]gather_global_matrix: 0 [ms]
[OGL LOG][Proc: 0]generate_distributed_matrix: 827.273 [ms]
[OGL LOG][Proc: 0]init_precond: 0.031 [ms]
[OGL LOG][Proc: 0]generate_solver: 0.002 [ms]
[OGL LOG][Proc: 0]solve: 63771.1 [ms]
[OGL LOG][Proc: 0]copy_x_back: 238.313 [ms]
[OGL LOG][lduLduBase.H:380] 
Statistics:
	Time per iteration: 16667 [mu s]
	Time per iteration and DOF: 0.133336 [ns]
	Retrieve results bandwith 2.098000 [GByte/s]
nonecudaGKOCG:  Solving for p, Initial residual = 0.0397968, Final residual = 4.16745e-05, No Iterations 3826
linear solve p 66882121
time step continuity errors : sum local = 4.75208e-11, global = -1.51992e-23, cumulative = 2.25003e-22
[OGL LOG][Proc: 0]global_index_init: 0.006 [ms]
[OGL LOG][Proc: 0]global_index_init: 0 [ms]
[OGL LOG][Proc: 0]update_host_matrix_data: 1568.86 [ms]
[OGL LOG][Proc: 0]gather_global_matrix: 0 [ms]
[OGL LOG][Proc: 0]generate_distributed_matrix: 817.875 [ms]
[OGL LOG][Proc: 0]init_precond: 0.034 [ms]
[OGL LOG][Proc: 0]generate_solver: 0.002 [ms]
[OGL LOG][Proc: 0]solve: 63811.3 [ms]
[OGL LOG][Proc: 0]copy_x_back: 237.845 [ms]
[OGL LOG][lduLduBase.H:380] 
Statistics:
	Time per iteration: 16678 [mu s]
	Time per iteration and DOF: 0.133424 [ns]
	Retrieve results bandwith 2.102000 [GByte/s]
nonecudaGKOCG:  Solving for p, Initial residual = 0.0337697, Final residual = 4.16923e-05, No Iterations 3826
linear solve p 66911854
time step continuity errors : sum local = 4.75454e-11, global = 8.04141e-24, cumulative = 2.33044e-22
ExecutionTime = 10458 s  ClockTime = 10491 s

Time = 0.00024

Courant Number mean: 0.00373265 max: 0.095842
DILUPBiCGStab:  Solving for Ux, Initial residual = 0.012784, Final residual = 1.10122e-05, No Iterations 5
DILUPBiCGStab:  Solving for Uy, Initial residual = 0.0217476, Final residual = 4.04567e-06, No Iterations 5
DILUPBiCGStab:  Solving for Uz, Initial residual = 0.0392448, Final residual = 3.45184e-05, No Iterations 5
linear solve U 84374798
[OGL LOG][Proc: 0]global_index_init: 0.006 [ms]
[OGL LOG][Proc: 0]global_index_init: 0 [ms]
[OGL LOG][Proc: 0]update_host_matrix_data: 1571.28 [ms]
[OGL LOG][Proc: 0]gather_global_matrix: 0 [ms]
[OGL LOG][Proc: 0]generate_distributed_matrix: 829.155 [ms]
[OGL LOG][Proc: 0]init_precond: 0.037 [ms]
[OGL LOG][Proc: 0]generate_solver: 0.002 [ms]
[OGL LOG][Proc: 0]solve: 61384.9 [ms]
[OGL LOG][Proc: 0]copy_x_back: 237.584 [ms]
[OGL LOG][lduLduBase.H:380] 
Statistics:
	Time per iteration: 16712 [mu s]
	Time per iteration and DOF: 0.133696 [ns]
	Retrieve results bandwith 2.104000 [GByte/s]
nonecudaGKOCG:  Solving for p, Initial residual = 0.0284825, Final residual = 9.20984e-05, No Iterations 3673
linear solve p 64498069
time step continuity errors : sum local = 1.04514e-10, global = -3.97376e-24, cumulative = 2.2907e-22
[OGL LOG][Proc: 0]global_index_init: 0.007 [ms]
[OGL LOG][Proc: 0]global_index_init: 0 [ms]
[OGL LOG][Proc: 0]update_host_matrix_data: 1569.26 [ms]
[OGL LOG][Proc: 0]gather_global_matrix: 0 [ms]
[OGL LOG][Proc: 0]generate_distributed_matrix: 832.35 [ms]
[OGL LOG][Proc: 0]init_precond: 0.035 [ms]
[OGL LOG][Proc: 0]generate_solver: 0.001 [ms]
[OGL LOG][Proc: 0]solve: 61030.6 [ms]
[OGL LOG][Proc: 0]copy_x_back: 237.839 [ms]
[OGL LOG][lduLduBase.H:380] 
Statistics:
	Time per iteration: 16716 [mu s]
	Time per iteration and DOF: 0.133728 [ns]
	Retrieve results bandwith 2.102000 [GByte/s]
nonecudaGKOCG:  Solving for p, Initial residual = 0.0250343, Final residual = 8.87732e-05, No Iterations 3651
linear solve p 64190866
time step continuity errors : sum local = 1.0079e-10, global = 3.209e-23, cumulative = 2.6116e-22
ExecutionTime = 10728 s  ClockTime = 10763 s

Time = 0.00026

Courant Number mean: 0.00388271 max: 0.0960213
DILUPBiCGStab:  Solving for Ux, Initial residual = 0.0118169, Final residual = 9.02344e-06, No Iterations 5
DILUPBiCGStab:  Solving for Uy, Initial residual = 0.019866, Final residual = 3.60881e-06, No Iterations 5
DILUPBiCGStab:  Solving for Uz, Initial residual = 0.0359194, Final residual = 2.7862e-05, No Iterations 5
linear solve U 84348211
[OGL LOG][Proc: 0]global_index_init: 0.007 [ms]
[OGL LOG][Proc: 0]global_index_init: 0 [ms]
[OGL LOG][Proc: 0]update_host_matrix_data: 1567.64 [ms]
[OGL LOG][Proc: 0]gather_global_matrix: 0 [ms]
[OGL LOG][Proc: 0]generate_distributed_matrix: 837.899 [ms]
[OGL LOG][Proc: 0]init_precond: 0.032 [ms]
[OGL LOG][Proc: 0]generate_solver: 0.002 [ms]
[OGL LOG][Proc: 0]solve: 60986.5 [ms]
[OGL LOG][Proc: 0]copy_x_back: 238.852 [ms]
[OGL LOG][lduLduBase.H:380] 
Statistics:
	Time per iteration: 16704 [mu s]
	Time per iteration and DOF: 0.133632 [ns]
	Retrieve results bandwith 2.093000 [GByte/s]
nonecudaGKOCG:  Solving for p, Initial residual = 0.0237695, Final residual = 7.44029e-05, No Iterations 3651
linear solve p 64107356
time step continuity errors : sum local = 8.41997e-11, global = -5.3964e-23, cumulative = 2.07196e-22
[OGL LOG][Proc: 0]global_index_init: 0.007 [ms]
[OGL LOG][Proc: 0]global_index_init: 0 [ms]
[OGL LOG][Proc: 0]update_host_matrix_data: 1570.13 [ms]
[OGL LOG][Proc: 0]gather_global_matrix: 0 [ms]
[OGL LOG][Proc: 0]generate_distributed_matrix: 908.691 [ms]
[OGL LOG][Proc: 0]init_precond: 0.036 [ms]
[OGL LOG][Proc: 0]generate_solver: 0.002 [ms]
[OGL LOG][Proc: 0]solve: 61046.2 [ms]
[OGL LOG][Proc: 0]copy_x_back: 237.993 [ms]
[OGL LOG][lduLduBase.H:380] 
Statistics:
	Time per iteration: 16720 [mu s]
	Time per iteration and DOF: 0.133760 [ns]
	Retrieve results bandwith 2.100000 [GByte/s]
nonecudaGKOCG:  Solving for p, Initial residual = 0.0209088, Final residual = 6.90804e-05, No Iterations 3651
linear solve p 64238007
time step continuity errors : sum local = 7.81899e-11, global = -1.9196e-23, cumulative = 1.88e-22
ExecutionTime = 10997.6 s  ClockTime = 11035 s

Time = 0.00028

Courant Number mean: 0.00402502 max: 0.0961782
DILUPBiCGStab:  Solving for Ux, Initial residual = 0.0109916, Final residual = 7.60097e-06, No Iterations 5
DILUPBiCGStab:  Solving for Uy, Initial residual = 0.0182788, Final residual = 2.69141e-06, No Iterations 5
DILUPBiCGStab:  Solving for Uz, Initial residual = 0.0334883, Final residual = 2.34645e-05, No Iterations 5
linear solve U 84363928
[OGL LOG][Proc: 0]global_index_init: 0.008 [ms]
[OGL LOG][Proc: 0]global_index_init: 0 [ms]
[OGL LOG][Proc: 0]update_host_matrix_data: 1575.79 [ms]
[OGL LOG][Proc: 0]gather_global_matrix: 0 [ms]
[OGL LOG][Proc: 0]generate_distributed_matrix: 868.083 [ms]
[OGL LOG][Proc: 0]init_precond: 0.044 [ms]
[OGL LOG][Proc: 0]generate_solver: 0.002 [ms]
[OGL LOG][Proc: 0]solve: 61029.3 [ms]
[OGL LOG][Proc: 0]copy_x_back: 238.687 [ms]
[OGL LOG][lduLduBase.H:380] 
Statistics:
	Time per iteration: 16715 [mu s]
	Time per iteration and DOF: 0.133720 [ns]
	Retrieve results bandwith 2.094000 [GByte/s]
nonecudaGKOCG:  Solving for p, Initial residual = 0.0187721, Final residual = 7.82408e-05, No Iterations 3651
linear solve p 64190648
time step continuity errors : sum local = 8.84554e-11, global = -1.00287e-22, cumulative = 8.77132e-23
[OGL LOG][Proc: 0]global_index_init: 0.013 [ms]
[OGL LOG][Proc: 0]global_index_init: 0 [ms]
[OGL LOG][Proc: 0]update_host_matrix_data: 1577 [ms]
[OGL LOG][Proc: 0]gather_global_matrix: 0 [ms]
[OGL LOG][Proc: 0]generate_distributed_matrix: 834.884 [ms]
[OGL LOG][Proc: 0]init_precond: 0.037 [ms]
[OGL LOG][Proc: 0]generate_solver: 0.002 [ms]
[OGL LOG][Proc: 0]solve: 60991.3 [ms]
[OGL LOG][Proc: 0]copy_x_back: 237.431 [ms]
[OGL LOG][lduLduBase.H:380] 
Statistics:
	Time per iteration: 16705 [mu s]
	Time per iteration and DOF: 0.133640 [ns]
	Retrieve results bandwith 2.105000 [GByte/s]
nonecudaGKOCG:  Solving for p, Initial residual = 0.017032, Final residual = 7.30675e-05, No Iterations 3651
linear solve p 64116601
time step continuity errors : sum local = 8.26395e-11, global = -4.21481e-23, cumulative = 4.55651e-23
ExecutionTime = 11267.2 s  ClockTime = 11306 s

Time = 0.0003

Courant Number mean: 0.00416047 max: 0.0963169
DILUPBiCGStab:  Solving for Ux, Initial residual = 0.0102753, Final residual = 6.44823e-06, No Iterations 5
DILUPBiCGStab:  Solving for Uy, Initial residual = 0.0169248, Final residual = 2.37606e-06, No Iterations 5
DILUPBiCGStab:  Solving for Uz, Initial residual = 0.0311808, Final residual = 1.96826e-05, No Iterations 5
linear solve U 84385878
[OGL LOG][Proc: 0]global_index_init: 0.007 [ms]
[OGL LOG][Proc: 0]global_index_init: 0 [ms]
[OGL LOG][Proc: 0]update_host_matrix_data: 1569.03 [ms]
[OGL LOG][Proc: 0]gather_global_matrix: 0 [ms]
[OGL LOG][Proc: 0]generate_distributed_matrix: 910.147 [ms]
[OGL LOG][Proc: 0]init_precond: 0.041 [ms]
[OGL LOG][Proc: 0]generate_solver: 0.002 [ms]
[OGL LOG][Proc: 0]solve: 61000.4 [ms]
[OGL LOG][Proc: 0]copy_x_back: 238.556 [ms]
[OGL LOG][lduLduBase.H:380] 
Statistics:
	Time per iteration: 16707 [mu s]
	Time per iteration and DOF: 0.133656 [ns]
	Retrieve results bandwith 2.095000 [GByte/s]
nonecudaGKOCG:  Solving for p, Initial residual = 0.0162706, Final residual = 7.03549e-05, No Iterations 3651
linear solve p 64193466
time step continuity errors : sum local = 7.93991e-11, global = 1.92076e-23, cumulative = 6.47727e-23
[OGL LOG][Proc: 0]global_index_init: 0.009 [ms]
[OGL LOG][Proc: 0]global_index_init: 0 [ms]
[OGL LOG][Proc: 0]update_host_matrix_data: 1575.84 [ms]
[OGL LOG][Proc: 0]gather_global_matrix: 0 [ms]
[OGL LOG][Proc: 0]generate_distributed_matrix: 936.789 [ms]
[OGL LOG][Proc: 0]init_precond: 0.042 [ms]
[OGL LOG][Proc: 0]generate_solver: 0.002 [ms]
[OGL LOG][Proc: 0]solve: 61042.3 [ms]
[OGL LOG][Proc: 0]copy_x_back: 238.436 [ms]
[OGL LOG][lduLduBase.H:380] 
Statistics:
	Time per iteration: 16719 [mu s]
	Time per iteration and DOF: 0.133752 [ns]
	Retrieve results bandwith 2.096000 [GByte/s]
nonecudaGKOCG:  Solving for p, Initial residual = 0.0148154, Final residual = 6.27686e-05, No Iterations 3651
linear solve p 64269358
time step continuity errors : sum local = 7.08542e-11, global = -9.36418e-24, cumulative = 5.54085e-23
ExecutionTime = 11536.8 s  ClockTime = 11578 s

Time = 0.00032

Courant Number mean: 0.00428992 max: 0.0964408
DILUPBiCGStab:  Solving for Ux, Initial residual = 0.00964943, Final residual = 5.55543e-06, No Iterations 5
DILUPBiCGStab:  Solving for Uy, Initial residual = 0.0157539, Final residual = 1.9366e-06, No Iterations 5
DILUPBiCGStab:  Solving for Uz, Initial residual = 0.0293044, Final residual = 1.69216e-05, No Iterations 5
linear solve U 84331936
[OGL LOG][Proc: 0]global_index_init: 0.007 [ms]
[OGL LOG][Proc: 0]global_index_init: 0 [ms]
[OGL LOG][Proc: 0]update_host_matrix_data: 1568.95 [ms]
[OGL LOG][Proc: 0]gather_global_matrix: 0 [ms]
[OGL LOG][Proc: 0]generate_distributed_matrix: 838.265 [ms]
[OGL LOG][Proc: 0]init_precond: 0.039 [ms]
[OGL LOG][Proc: 0]generate_solver: 0.002 [ms]
[OGL LOG][Proc: 0]solve: 61040.2 [ms]
[OGL LOG][Proc: 0]copy_x_back: 238.554 [ms]
[OGL LOG][lduLduBase.H:380] 
Statistics:
	Time per iteration: 16718 [mu s]
	Time per iteration and DOF: 0.133744 [ns]
	Retrieve results bandwith 2.095000 [GByte/s]
nonecudaGKOCG:  Solving for p, Initial residual = 0.013822, Final residual = 5.5361e-05, No Iterations 3651
linear solve p 64163194
time step continuity errors : sum local = 6.24976e-11, global = -3.5548e-23, cumulative = 1.98605e-23
[OGL LOG][Proc: 0]global_index_init: 0.006 [ms]
[OGL LOG][Proc: 0]global_index_init: 0 [ms]
[OGL LOG][Proc: 0]update_host_matrix_data: 1573.57 [ms]
[OGL LOG][Proc: 0]gather_global_matrix: 0 [ms]
[OGL LOG][Proc: 0]generate_distributed_matrix: 837.446 [ms]
[OGL LOG][Proc: 0]init_precond: 0.035 [ms]
[OGL LOG][Proc: 0]generate_solver: 0.002 [ms]
[OGL LOG][Proc: 0]solve: 60985.6 [ms]
[OGL LOG][Proc: 0]copy_x_back: 237.782 [ms]
[OGL LOG][lduLduBase.H:380] 
Statistics:
	Time per iteration: 16703 [mu s]
	Time per iteration and DOF: 0.133624 [ns]
	Retrieve results bandwith 2.102000 [GByte/s]
nonecudaGKOCG:  Solving for p, Initial residual = 0.0128411, Final residual = 3.8381e-05, No Iterations 3651
linear solve p 64111472
time step continuity errors : sum local = 4.3342e-11, global = 2.09307e-23, cumulative = 4.07912e-23
ExecutionTime = 11806.2 s  ClockTime = 11849 s

Time = 0.00034

Courant Number mean: 0.00441392 max: 0.0965522
DILUPBiCGStab:  Solving for Ux, Initial residual = 0.00909606, Final residual = 4.82999e-06, No Iterations 5
[...]
linear solve p 152890
time step continuity errors : sum local = 8.73722e-10, global = -7.20211e-22, cumulative = -4.16098e-21
[OGL LOG][Proc: 0]global_index_init: 0.004 [ms]
[OGL LOG][Proc: 0]global_index_init: 0.001 [ms]
[OGL LOG][Proc: 0]update_host_matrix_data: 6.422 [ms]
[OGL LOG][Proc: 0]gather_global_matrix: 0 [ms]
[OGL LOG][Proc: 0]generate_distributed_matrix: 9.299 [ms]
[OGL LOG][Proc: 0]init_precond: 0.032 [ms]
[OGL LOG][Proc: 0]generate_solver: 0.002 [ms]
[OGL LOG][Proc: 0]solve: 128.59 [ms]
[OGL LOG][Proc: 0]copy_x_back: 0.601 [ms]
[OGL LOG][lduLduBase.H:380] 
Statistics:
	Time per iteration: 191 [mu s]
	Time per iteration and DOF: 0.191000 [ns]
	Retrieve results bandwith 3.327000 [GByte/s]
nonecudaGKOCG:  Solving for p, Initial residual = 0.00823078, Final residual = 9.82179e-05, No Iterations 673
linear solve p 148092
time step continuity errors : sum local = 2.39584e-09, global = 5.54212e-22, cumulative = -3.60677e-21
ExecutionTime = 12.01 s  ClockTime = 12 s

Time = 0.0012

Courant Number mean: 0.00722379 max: 0.0900356
DILUPBiCGStab:  Solving for Ux, Initial residual = 0.0147484, Final residual = 3.82109e-08, No Iterations 5
DILUPBiCGStab:  Solving for Uy, Initial residual = 0.0202882, Final residual = 1.15587e-08, No Iterations 5
DILUPBiCGStab:  Solving for Uz, Initial residual = 0.0381764, Final residual = 2.7301e-08, No Iterations 5
linear solve U 272755
[OGL LOG][Proc: 0]global_index_init: 0.005 [ms]
[OGL LOG][Proc: 0]global_index_init: 0.001 [ms]
[OGL LOG][Proc: 0]update_host_matrix_data: 6.415 [ms]
[OGL LOG][Proc: 0]gather_global_matrix: 0 [ms]
[OGL LOG][Proc: 0]generate_distributed_matrix: 9.856 [ms]
[OGL LOG][Proc: 0]init_precond: 0.025 [ms]
[OGL LOG][Proc: 0]generate_solver: 0.002 [ms]
[OGL LOG][Proc: 0]solve: 130.606 [ms]
[OGL LOG][Proc: 0]copy_x_back: 0.638 [ms]
[OGL LOG][lduLduBase.H:380] 
Statistics:
	Time per iteration: 192 [mu s]
	Time per iteration and DOF: 0.192000 [ns]
	Retrieve results bandwith 3.134000 [GByte/s]
nonecudaGKOCG:  Solving for p, Initial residual = 0.00901389, Final residual = 9.21201e-05, No Iterations 677
linear solve p 150734
time step continuity errors : sum local = 2.25012e-09, global = -1.88658e-21, cumulative = -5.49336e-21
[OGL LOG][Proc: 0]global_index_init: 0.005 [ms]
[OGL LOG][Proc: 0]global_index_init: 0.001 [ms]
[OGL LOG][Proc: 0]update_host_matrix_data: 6.418 [ms]
[OGL LOG][Proc: 0]gather_global_matrix: 0 [ms]
[OGL LOG][Proc: 0]generate_distributed_matrix: 9.523 [ms]
[OGL LOG][Proc: 0]init_precond: 0.025 [ms]
[OGL LOG][Proc: 0]generate_solver: 0.002 [ms]
[OGL LOG][Proc: 0]solve: 130.022 [ms]
[OGL LOG][Proc: 0]copy_x_back: 0.665 [ms]
[OGL LOG][lduLduBase.H:380] 
Statistics:
	Time per iteration: 192 [mu s]
	Time per iteration and DOF: 0.192000 [ns]
	Retrieve results bandwith 3.007000 [GByte/s]
nonecudaGKOCG:  Solving for p, Initial residual = 0.00733618, Final residual = 7.57805e-05, No Iterations 676
linear solve p 149690
time step continuity errors : sum local = 1.85367e-09, global = -9.17369e-22, cumulative = -6.41072e-21
ExecutionTime = 12.76 s  ClockTime = 13 s

Time = 0.0013

Courant Number mean: 0.00748302 max: 0.0904387
DILUPBiCGStab:  Solving for Ux, Initial residual = 0.0134671, Final residual = 3.45606e-08, No Iterations 5
DILUPBiCGStab:  Solving for Uy, Initial residual = 0.0184652, Final residual = 9.97588e-09, No Iterations 5
DILUPBiCGStab:  Solving for Uz, Initial residual = 0.035048, Final residual = 2.42782e-08, No Iterations 5
linear solve U 274633
[OGL LOG][Proc: 0]global_index_init: 0.004 [ms]
[OGL LOG][Proc: 0]global_index_init: 0.001 [ms]
[OGL LOG][Proc: 0]update_host_matrix_data: 6.463 [ms]
[OGL LOG][Proc: 0]gather_global_matrix: 0 [ms]
[OGL LOG][Proc: 0]generate_distributed_matrix: 9.268 [ms]
[OGL LOG][Proc: 0]init_precond: 0.026 [ms]
[OGL LOG][Proc: 0]generate_solver: 0.001 [ms]
[OGL LOG][Proc: 0]solve: 126.133 [ms]
[OGL LOG][Proc: 0]copy_x_back: 0.593 [ms]
[OGL LOG][lduLduBase.H:380] 
Statistics:
	Time per iteration: 186 [mu s]
	Time per iteration and DOF: 0.186000 [ns]
	Retrieve results bandwith 3.372000 [GByte/s]
nonecudaGKOCG:  Solving for p, Initial residual = 0.00804865, Final residual = 8.88772e-05, No Iterations 676
linear solve p 145915
time step continuity errors : sum local = 2.17662e-09, global = -3.95695e-22, cumulative = -6.80642e-21
[OGL LOG][Proc: 0]global_index_init: 0.005 [ms]
[OGL LOG][Proc: 0]global_index_init: 0.001 [ms]
[OGL LOG][Proc: 0]update_host_matrix_data: 6.377 [ms]
[OGL LOG][Proc: 0]gather_global_matrix: 0 [ms]
[OGL LOG][Proc: 0]generate_distributed_matrix: 9.565 [ms]
[OGL LOG][Proc: 0]init_precond: 0.033 [ms]
[OGL LOG][Proc: 0]generate_solver: 0.002 [ms]
[OGL LOG][Proc: 0]solve: 124.913 [ms]
[OGL LOG][Proc: 0]copy_x_back: 0.597 [ms]
[OGL LOG][lduLduBase.H:380] 
Statistics:
	Time per iteration: 184 [mu s]
	Time per iteration and DOF: 0.184000 [ns]
	Retrieve results bandwith 3.350000 [GByte/s]
nonecudaGKOCG:  Solving for p, Initial residual = 0.00657133, Final residual = 6.15543e-05, No Iterations 676
linear solve p 144685
time step continuity errors : sum local = 1.50937e-09, global = 1.24443e-22, cumulative = -6.68198e-21
ExecutionTime = 13.49 s  ClockTime = 14 s

Time = 0.0014

Courant Number mean: 0.00772783 max: 0.0907903
DILUPBiCGStab:  Solving for Ux, Initial residual = 0.0123794, Final residual = 3.14356e-08, No Iterations 5
DILUPBiCGStab:  Solving for Uy, Initial residual = 0.0169325, Final residual = 8.75867e-09, No Iterations 5
DILUPBiCGStab:  Solving for Uz, Initial residual = 0.0323887, Final residual = 2.19515e-08, No Iterations 5
linear solve U 272085
[OGL LOG][Proc: 0]global_index_init: 0.005 [ms]
[OGL LOG][Proc: 0]global_index_init: 0.001 [ms]
[OGL LOG][Proc: 0]update_host_matrix_data: 6.491 [ms]
[OGL LOG][Proc: 0]gather_global_matrix: 0 [ms]
[OGL LOG][Proc: 0]generate_distributed_matrix: 9.546 [ms]
[OGL LOG][Proc: 0]init_precond: 0.025 [ms]
[OGL LOG][Proc: 0]generate_solver: 0.002 [ms]
[OGL LOG][Proc: 0]solve: 127.748 [ms]
[OGL LOG][Proc: 0]copy_x_back: 0.6 [ms]
[OGL LOG][lduLduBase.H:380] 
Statistics:
	Time per iteration: 188 [mu s]
	Time per iteration and DOF: 0.188000 [ns]
	Retrieve results bandwith 3.333000 [GByte/s]
nonecudaGKOCG:  Solving for p, Initial residual = 0.00719107, Final residual = 8.14785e-05, No Iterations 676
linear solve p 147407
time step continuity errors : sum local = 1.99991e-09, global = 1.5087e-22, cumulative = -6.53111e-21
[OGL LOG][Proc: 0]global_index_init: 0.005 [ms]
[OGL LOG][Proc: 0]global_index_init: 0.001 [ms]
[OGL LOG][Proc: 0]update_host_matrix_data: 6.361 [ms]
[OGL LOG][Proc: 0]gather_global_matrix: 0 [ms]
[OGL LOG][Proc: 0]generate_distributed_matrix: 9.321 [ms]
[OGL LOG][Proc: 0]init_precond: 0.032 [ms]
[OGL LOG][Proc: 0]generate_solver: 0.003 [ms]
[OGL LOG][Proc: 0]solve: 127.816 [ms]
[OGL LOG][Proc: 0]copy_x_back: 0.663 [ms]
[OGL LOG][lduLduBase.H:380] 
Statistics:
	Time per iteration: 189 [mu s]
	Time per iteration and DOF: 0.189000 [ns]
	Retrieve results bandwith 3.016000 [GByte/s]
nonecudaGKOCG:  Solving for p, Initial residual = 0.00589801, Final residual = 5.4301e-05, No Iterations 676
linear solve p 147242
time step continuity errors : sum local = 1.33433e-09, global = 4.3586e-23, cumulative = -6.48752e-21
ExecutionTime = 14.23 s  ClockTime = 15 s

Time = 0.0015

Courant Number mean: 0.00795861 max: 0.0911006
DILUPBiCGStab:  Solving for Ux, Initial residual = 0.011447, Final residual = 2.87268e-08, No Iterations 5
DILUPBiCGStab:  Solving for Uy, Initial residual = 0.0156259, Final residual = 7.75724e-09, No Iterations 5
DILUPBiCGStab:  Solving for Uz, Initial residual = 0.0300847, Final residual = 2.0157e-08, No Iterations 5
linear solve U 272492
[OGL LOG][Proc: 0]global_index_init: 0.005 [ms]
[OGL LOG][Proc: 0]global_index_init: 0.001 [ms]
[OGL LOG][Proc: 0]update_host_matrix_data: 6.357 [ms]
[OGL LOG][Proc: 0]gather_global_matrix: 0 [ms]
[OGL LOG][Proc: 0]generate_distributed_matrix: 9.475 [ms]
[OGL LOG][Proc: 0]init_precond: 0.025 [ms]
[OGL LOG][Proc: 0]generate_solver: 0.002 [ms]
[OGL LOG][Proc: 0]solve: 128.789 [ms]
[OGL LOG][Proc: 0]copy_x_back: 0.637 [ms]
[OGL LOG][lduLduBase.H:380] 
Statistics:
	Time per iteration: 190 [mu s]
	Time per iteration and DOF: 0.190000 [ns]
	Retrieve results bandwith 3.139000 [GByte/s]
nonecudaGKOCG:  Solving for p, Initial residual = 0.00650175, Final residual = 7.36649e-05, No Iterations 676
linear solve p 148430
time step continuity errors : sum local = 1.81179e-09, global = -3.05831e-22, cumulative = -6.79335e-21
[OGL LOG][Proc: 0]global_index_init: 0.004 [ms]
[OGL LOG][Proc: 0]global_index_init: 0.001 [ms]
[OGL LOG][Proc: 0]update_host_matrix_data: 6.05 [ms]
[OGL LOG][Proc: 0]gather_global_matrix: 0 [ms]
[OGL LOG][Proc: 0]generate_distributed_matrix: 9.651 [ms]
[OGL LOG][Proc: 0]init_precond: 0.024 [ms]
[OGL LOG][Proc: 0]generate_solver: 0.001 [ms]
[OGL LOG][Proc: 0]solve: 105.542 [ms]
[OGL LOG][Proc: 0]copy_x_back: 0.603 [ms]
[OGL LOG][lduLduBase.H:380] 
Statistics:
	Time per iteration: 195 [mu s]
	Time per iteration and DOF: 0.195000 [ns]
	Retrieve results bandwith 3.316000 [GByte/s]
nonecudaGKOCG:  Solving for p, Initial residual = 0.00534428, Final residual = 9.88748e-05, No Iterations 541
linear solve p 127057
time step continuity errors : sum local = 2.46993e-09, global = -2.36749e-22, cumulative = -7.0301e-21
ExecutionTime = 14.95 s  ClockTime = 15 s

Time = 0.0016

Courant Number mean: 0.00817648 max: 0.091377
DILUPBiCGStab:  Solving for Ux, Initial residual = 0.0106401, Final residual = 2.63438e-08, No Iterations 5
DILUPBiCGStab:  Solving for Uy, Initial residual = 0.0145001, Final residual = 6.91862e-09, No Iterations 5
DILUPBiCGStab:  Solving for Uz, Initial residual = 0.0280947, Final residual = 1.98373e-08, No Iterations 5
linear solve U 279691
[OGL LOG][Proc: 0]global_index_init: 0.005 [ms]
[OGL LOG][Proc: 0]global_index_init: 0.002 [ms]
[OGL LOG][Proc: 0]update_host_matrix_data: 6.415 [ms]
[OGL LOG][Proc: 0]gather_global_matrix: 0 [ms]
[OGL LOG][Proc: 0]generate_distributed_matrix: 9.702 [ms]
[OGL LOG][Proc: 0]init_precond: 0.033 [ms]
[OGL LOG][Proc: 0]generate_solver: 0.001 [ms]
[OGL LOG][Proc: 0]solve: 89.573 [ms]
[OGL LOG][Proc: 0]copy_x_back: 0.586 [ms]
[OGL LOG][lduLduBase.H:380] 
Statistics:
	Time per iteration: 202 [mu s]
	Time per iteration and DOF: 0.202000 [ns]
	Retrieve results bandwith 3.412000 [GByte/s]
nonecudaGKOCG:  Solving for p, Initial residual = 0.00596831, Final residual = 1.06947e-05, No Iterations 442
linear solve p 109490
time step continuity errors : sum local = 2.92385e-10, global = 7.33214e-22, cumulative = -6.29689e-21
[OGL LOG][Proc: 0]global_index_init: 0.004 [ms]
[OGL LOG][Proc: 0]global_index_init: 0.001 [ms]
[OGL LOG][Proc: 0]update_host_matrix_data: 6.391 [ms]
[OGL LOG][Proc: 0]gather_global_matrix: 0 [ms]
[OGL LOG][Proc: 0]generate_distributed_matrix: 9.705 [ms]
[OGL LOG][Proc: 0]init_precond: 0.024 [ms]
[OGL LOG][Proc: 0]generate_solver: 0.001 [ms]
[OGL LOG][Proc: 0]solve: 75.731 [ms]
[OGL LOG][Proc: 0]copy_x_back: 0.604 [ms]
[OGL LOG][lduLduBase.H:380] 
Statistics:
	Time per iteration: 211 [mu s]
	Time per iteration and DOF: 0.211000 [ns]
	Retrieve results bandwith 3.311000 [GByte/s]
nonecudaGKOCG:  Solving for p, Initial residual = 0.0048652, Final residual = 1.40393e-05, No Iterations 358
linear solve p 95612
time step continuity errors : sum local = 3.86677e-10, global = -3.52312e-22, cumulative = -6.6492e-21
ExecutionTime = 15.61 s  ClockTime = 16 s

Time = 0.0017

Courant Number mean: 0.00838249 max: 0.0916252
DILUPBiCGStab:  Solving for Ux, Initial residual = 0.00993241, Final residual = 2.42384e-08, No Iterations 5
DILUPBiCGStab:  Solving for Uy, Initial residual = 0.0135174, Final residual = 6.24457e-09, No Iterations 5
DILUPBiCGStab:  Solving for Uz, Initial residual = 0.026359, Final residual = 1.73226e-08, No Iterations 5
linear solve U 272428
[OGL LOG][Proc: 0]global_index_init: 0.005 [ms]
[OGL LOG][Proc: 0]global_index_init: 0.001 [ms]
[OGL LOG][Proc: 0]update_host_matrix_data: 6.434 [ms]
[OGL LOG][Proc: 0]gather_global_matrix: 0 [ms]
[OGL LOG][Proc: 0]generate_distributed_matrix: 10.044 [ms]
[OGL LOG][Proc: 0]init_precond: 0.025 [ms]
[OGL LOG][Proc: 0]generate_solver: 0.001 [ms]
[OGL LOG][Proc: 0]solve: 64.946 [ms]
[OGL LOG][Proc: 0]copy_x_back: 0.597 [ms]
[OGL LOG][lduLduBase.H:380] 
Statistics:
	Time per iteration: 220 [mu s]
	Time per iteration and DOF: 0.220000 [ns]
	Retrieve results bandwith 3.350000 [GByte/s]
nonecudaGKOCG:  Solving for p, Initial residual = 0.00536026, Final residual = 3.24539e-05, No Iterations 295
linear solve p 85132
time step continuity errors : sum local = 8.11859e-10, global = -1.58172e-21, cumulative = -8.23092e-21
[OGL LOG][Proc: 0]global_index_init: 0.005 [ms]
[OGL LOG][Proc: 0]global_index_init: 0.002 [ms]
[OGL LOG][Proc: 0]update_host_matrix_data: 6.417 [ms]
[OGL LOG][Proc: 0]gather_global_matrix: 0 [ms]
[OGL LOG][Proc: 0]generate_distributed_matrix: 9.712 [ms]
[OGL LOG][Proc: 0]init_precond: 0.025 [ms]
[OGL LOG][Proc: 0]generate_solver: 0.001 [ms]
[OGL LOG][Proc: 0]solve: 60.056 [ms]
[OGL LOG][Proc: 0]copy_x_back: 0.615 [ms]
[OGL LOG][lduLduBase.H:380] 
Statistics:
	Time per iteration: 226 [mu s]
	Time per iteration and DOF: 0.226000 [ns]
	Retrieve results bandwith 3.252000 [GByte/s]
nonecudaGKOCG:  Solving for p, Initial residual = 0.00439745, Final residual = 7.70959e-05, No Iterations 265
linear solve p 79886
time step continuity errors : sum local = 1.93493e-09, global = -4.42556e-22, cumulative = -8.67348e-21
ExecutionTime = 16.21 s  ClockTime = 17 s

Time = 0.0018

Courant Number mean: 0.00857955 max: 0.0918497
DILUPBiCGStab:  Solving for Ux, Initial residual = 0.00931084, Final residual = 2.23694e-08, No Iterations 5
DILUPBiCGStab:  Solving for Uy, Initial residual = 0.0126548, Final residual = 5.65997e-09, No Iterations 5
DILUPBiCGStab:  Solving for Uz, Initial residual = 0.024771, Final residual = 1.65917e-08, No Iterations 5
linear solve U 272428
[OGL LOG][Proc: 0]global_index_init: 0.004 [ms]
[OGL LOG][Proc: 0]global_index_init: 0.001 [ms]
[OGL LOG][Proc: 0]update_host_matrix_data: 6.461 [ms]
[OGL LOG][Proc: 0]gather_global_matrix: 0 [ms]
[OGL LOG][Proc: 0]generate_distributed_matrix: 9.885 [ms]
[OGL LOG][Proc: 0]init_precond: 0.024 [ms]
[OGL LOG][Proc: 0]generate_solver: 0.001 [ms]
[OGL LOG][Proc: 0]solve: 61.391 [ms]
[OGL LOG][Proc: 0]copy_x_back: 0.605 [ms]
[OGL LOG][lduLduBase.H:380] 
Statistics:
	Time per iteration: 226 [mu s]
	Time per iteration and DOF: 0.226000 [ns]
	Retrieve results bandwith 3.305000 [GByte/s]
nonecudaGKOCG:  Solving for p, Initial residual = 0.00502504, Final residual = 7.15768e-05, No Iterations 271
linear solve p 81342
time step continuity errors : sum local = 1.77588e-09, global = -1.98643e-21, cumulative = -1.06599e-20
[OGL LOG][Proc: 0]global_index_init: 0.005 [ms]
[OGL LOG][Proc: 0]global_index_init: 0.001 [ms]
[OGL LOG][Proc: 0]update_host_matrix_data: 6.474 [ms]
[OGL LOG][Proc: 0]gather_global_matrix: 0 [ms]
[OGL LOG][Proc: 0]generate_distributed_matrix: 9.797 [ms]
[OGL LOG][Proc: 0]init_precond: 0.024 [ms]
[OGL LOG][Proc: 0]generate_solver: 0.001 [ms]
[OGL LOG][Proc: 0]solve: 59.763 [ms]
[OGL LOG][Proc: 0]copy_x_back: 0.616 [ms]
[OGL LOG][lduLduBase.H:380] 
Statistics:
	Time per iteration: 228 [mu s]
	Time per iteration and DOF: 0.228000 [ns]
	Retrieve results bandwith 3.246000 [GByte/s]
nonecudaGKOCG:  Solving for p, Initial residual = 0.0041345, Final residual = 8.75815e-05, No Iterations 261
linear solve p 79724
time step continuity errors : sum local = 2.19032e-09, global = -1.57132e-21, cumulative = -1.22312e-20
ExecutionTime = 16.81 s  ClockTime = 17 s

Time = 0.0019

Courant Number mean: 0.00876812 max: 0.092054
DILUPBiCGStab:  Solving for Ux, Initial residual = 0.00875808, Final residual = 2.07017e-08, No Iterations 5
DILUPBiCGStab:  Solving for Uy, Initial residual = 0.0118905, Final residual = 5.13341e-09, No Iterations 5
DILUPBiCGStab:  Solving for Uz, Initial residual = 0.0233606, Final residual = 1.56971e-08, No Iterations 5
linear solve U 272155
[OGL LOG][Proc: 0]global_index_init: 0.005 [ms]
[OGL LOG][Proc: 0]global_index_init: 0.001 [ms]
[OGL LOG][Proc: 0]update_host_matrix_data: 6.538 [ms]
[OGL LOG][Proc: 0]gather_global_matrix: 0 [ms]
[OGL LOG][Proc: 0]generate_distributed_matrix: 9.784 [ms]
[OGL LOG][Proc: 0]init_precond: 0.025 [ms]
[OGL LOG][Proc: 0]generate_solver: 0.001 [ms]
[OGL LOG][Proc: 0]solve: 61.91 [ms]
[OGL LOG][Proc: 0]copy_x_back: 0.615 [ms]
[OGL LOG][lduLduBase.H:380] 
Statistics:
	Time per iteration: 228 [mu s]
	Time per iteration and DOF: 0.228000 [ns]
	Retrieve results bandwith 3.252000 [GByte/s]
nonecudaGKOCG:  Solving for p, Initial residual = 0.00468707, Final residual = 6.96206e-05, No Iterations 271
linear solve p 81884
time step continuity errors : sum local = 1.72404e-09, global = -1.60744e-21, cumulative = -1.38387e-20
[OGL LOG][Proc: 0]global_index_init: 0.004 [ms]
[OGL LOG][Proc: 0]global_index_init: 0.001 [ms]
[OGL LOG][Proc: 0]update_host_matrix_data: 6.329 [ms]
[OGL LOG][Proc: 0]gather_global_matrix: 0 [ms]
[OGL LOG][Proc: 0]generate_distributed_matrix: 9.764 [ms]
[OGL LOG][Proc: 0]init_precond: 0.023 [ms]
[OGL LOG][Proc: 0]generate_solver: 0.001 [ms]
[OGL LOG][Proc: 0]solve: 59.509 [ms]
[OGL LOG][Proc: 0]copy_x_back: 0.596 [ms]
[OGL LOG][lduLduBase.H:380] 
Statistics:
	Time per iteration: 228 [mu s]
	Time per iteration and DOF: 0.228000 [ns]
	Retrieve results bandwith 3.355000 [GByte/s]
nonecudaGKOCG:  Solving for p, Initial residual = 0.00385961, Final residual = 8.15934e-05, No Iterations 261
linear solve p 79377
time step continuity errors : sum local = 2.0382e-09, global = -1.70631e-21, cumulative = -1.5545e-20
ExecutionTime = 17.41 s  ClockTime = 18 s

Time = 0.002

Courant Number mean: 0.00894849 max: 0.0922409
DILUPBiCGStab:  Solving for Ux, Initial residual = 0.0082609, Final residual = 1.92009e-08, No Iterations 5
DILUPBiCGStab:  Solving for Uy, Initial residual = 0.0112089, Final residual = 4.69136e-09, No Iterations 5
DILUPBiCGStab:  Solving for Uz, Initial residual = 0.0220945, Final residual = 1.48316e-08, No Iterations 5
linear solve U 272614
[OGL LOG][Proc: 0]global_index_init: 0.004 [ms]
[OGL LOG][Proc: 0]global_index_init: 0.001 [ms]
[OGL LOG][Proc: 0]update_host_matrix_data: 6.49 [ms]
[OGL LOG][Proc: 0]gather_global_matrix: 0 [ms]
[OGL LOG][Proc: 0]generate_distributed_matrix: 9.762 [ms]
[OGL LOG][Proc: 0]init_precond: 0.026 [ms]
[OGL LOG][Proc: 0]generate_solver: 0.001 [ms]
[OGL LOG][Proc: 0]solve: 59.841 [ms]
[OGL LOG][Proc: 0]copy_x_back: 0.64 [ms]
[OGL LOG][lduLduBase.H:380] 
Statistics:
	Time per iteration: 229 [mu s]
	Time per iteration and DOF: 0.229000 [ns]
	Retrieve results bandwith 3.125000 [GByte/s]
nonecudaGKOCG:  Solving for p, Initial residual = 0.00432834, Final residual = 9.40449e-05, No Iterations 261
linear solve p 79909
time step continuity errors : sum local = 2.33358e-09, global = -1.64305e-21, cumulative = -1.7188e-20
[OGL LOG][Proc: 0]global_index_init: 0.004 [ms]
[OGL LOG][Proc: 0]global_index_init: 0.001 [ms]
[OGL LOG][Proc: 0]update_host_matrix_data: 6.548 [ms]
[OGL LOG][Proc: 0]gather_global_matrix: 0 [ms]
[OGL LOG][Proc: 0]generate_distributed_matrix: 9.44 [ms]
[OGL LOG][Proc: 0]init_precond: 0.033 [ms]
[OGL LOG][Proc: 0]generate_solver: 0.002 [ms]
[OGL LOG][Proc: 0]solve: 60.022 [ms]
[OGL LOG][Proc: 0]copy_x_back: 0.598 [ms]
[OGL LOG][lduLduBase.H:380] 
Statistics:
	Time per iteration: 229 [mu s]
	Time per iteration and DOF: 0.229000 [ns]
	Retrieve results bandwith 3.344000 [GByte/s]
nonecudaGKOCG:  Solving for p, Initial residual = 0.00359961, Final residual = 6.89615e-05, No Iterations 261
linear solve p 79708
time step continuity errors : sum local = 1.72152e-09, global = -2.95083e-22, cumulative = -1.74831e-20
ExecutionTime = 18.01 s  ClockTime = 18 s

End

Finalising parallel run
================================================================================
