hash: 48dc2253936281947c86f8a1b130b4cc
/*---------------------------------------------------------------------------*\
| =========                 |                                                 |
| \\      /  F ield         | OpenFOAM: The Open Source CFD Toolbox           |
|  \\    /   O peration     | Version:  2112                                  |
|   \\  /    A nd           | Website:  www.openfoam.com                      |
|    \\/     M anipulation  |                                                 |
\*---------------------------------------------------------------------------*/
Build  : d44c8318f0-20220111 OPENFOAM=2112 version=v2112
Arch   : "LSB;label=32;scalar=64"
Exec   : icoFoam -parallel
Date   : Jan 30 2022
Time   : 10:12:21
Host   : hkn0426.localdomain
PID    : 3636971
I/O    : uncollated
Case   : /hkfs/home/project/hk-project-test-fine/eq4036/data/code/ogl_labbook/lidDrivenCavity/solver/Variation_mesh/100/Variation_matrix_solver/CG_ISAI_CUDA/Variation_mpiRank/8/base
nProcs : 8
Hosts  :
(
    (hkn0426.localdomain 8)
)
Pstream initialized with:
    floatTransfer      : 0
    nProcsSimpleSum    : 0
    commsType          : nonBlocking
    polling iterations : 0
trapFpe: Floating point exception trapping enabled (FOAM_SIGFPE).
fileModificationChecking : Monitoring run-time modified files using timeStampMaster (fileModificationSkew 5, maxFileModificationPolls 20)
allowSystemOperations : Allowing user-supplied system call operations

// * * * * * * * * * * * * * * * * * * * * * * * * * * * * * * * * * * * * * //
Create time

Create mesh for time = 0


PISO: Operating solver in PISO mode

Reading transportProperties

Reading field p

Reading field U

Reading/calculating face flux field phi


Starting time loop

Time = 0.001

Courant Number mean: 0 max: 0
DILUPBiCGStab:  Solving for Ux, Initial residual = 1, Final residual = 0.00976191, No Iterations 5
DILUPBiCGStab:  Solving for Uy:  solution singularity
DILUPBiCGStab:  Solving for Uz:  solution singularity
linear solve U 67235
[OGL LOG][Proc: 0]global_index_init : 12851 mu s
[OGL LOG][Proc: 0]global_index_init : 2 mu s
[OGL LOG][Proc: 0]global_index_init : 1 mu s
[OGL LOG][Proc: 0]global_index_init : 1 mu s
[OGL LOG][Proc: 0]init_host_sparsity_pattern : 592732 mu s
[OGL LOG][Proc: 0]update_host_matrix_data : 5182 mu s
[OGL LOG][Proc: 0]convert_coo_to_csr : 1018 mu s
[OGL LOG][Proc: 0]gather_initGuess : 4475 mu s
[OGL LOG][Proc: 0]gather_RHS : 1834 mu s
[OGL LOG][Proc: 0]gather_global_matrix : 0 mu s
[OGL LOG][Proc: 0]init_precond : 64377 mu s
[OGL LOG][Proc: 0]generate_solver : 13 mu s
[OGL LOG][Proc: 0]solve : 272564 mu s
[OGL LOG][Proc: 0]retrieve_result_from_device : 2798 mu s
ISAIcudaGKOCG:  Solving for p, Initial residual = 1, Final residual = 9.46171e-07, No Iterations 702
linear solve p 2907741
time step continuity errors : sum local = 5.47512e-10, global = 1.53606e-20, cumulative = 1.53606e-20
[OGL LOG][Proc: 0]global_index_init : 63 mu s
[OGL LOG][Proc: 0]global_index_init : 1 mu s
[OGL LOG][Proc: 0]global_index_init : 2 mu s
[OGL LOG][Proc: 0]global_index_init : 1 mu s
[OGL LOG][Proc: 0]update_host_matrix_data : 3588 mu s
[OGL LOG][Proc: 0]gather_initGuess : 5 mu s
[OGL LOG][Proc: 0]gather_RHS : 3872 mu s
[OGL LOG][Proc: 0]gather_global_matrix : 0 mu s
read from registry
[OGL LOG][Proc: 0]init_precond : 16 mu s
[OGL LOG][Proc: 0]generate_solver : 1 mu s
[OGL LOG][Proc: 0]solve : 231852 mu s
[OGL LOG][Proc: 0]retrieve_result_from_device : 2442 mu s
ISAIcudaGKOCG:  Solving for p, Initial residual = 0.777378, Final residual = 7.20631e-07, No Iterations 701
linear solve p 243908
time step continuity errors : sum local = 5.2553e-10, global = -4.5404e-21, cumulative = 1.08202e-20
ExecutionTime = 3.38 s  ClockTime = 4 s

Time = 0.002

Courant Number mean: 0.0555224 max: 0.807219
DILUPBiCGStab:  Solving for Ux, Initial residual = 0.137481, Final residual = 0.00480444, No Iterations 5
DILUPBiCGStab:  Solving for Uy, Initial residual = 0.431367, Final residual = 0.0127824, No Iterations 5
DILUPBiCGStab:  Solving for Uz, Initial residual = 0.97357, Final residual = 0.0274117, No Iterations 5
linear solve U 123583
[OGL LOG][Proc: 0]global_index_init : 30 mu s
[OGL LOG][Proc: 0]global_index_init : 1 mu s
[OGL LOG][Proc: 0]global_index_init : 2 mu s
[OGL LOG][Proc: 0]global_index_init : 1 mu s
[OGL LOG][Proc: 0]update_host_matrix_data : 3595 mu s
[OGL LOG][Proc: 0]gather_initGuess : 5 mu s
[OGL LOG][Proc: 0]gather_RHS : 3373 mu s
[OGL LOG][Proc: 0]gather_global_matrix : 0 mu s
read from registry
[OGL LOG][Proc: 0]init_precond : 8 mu s
[OGL LOG][Proc: 0]generate_solver : 1 mu s
[OGL LOG][Proc: 0]solve : 230656 mu s
[OGL LOG][Proc: 0]retrieve_result_from_device : 1712 mu s
ISAIcudaGKOCG:  Solving for p, Initial residual = 0.808994, Final residual = 3.75751e-07, No Iterations 701
linear solve p 241329
time step continuity errors : sum local = 4.02819e-10, global = 8.61879e-21, cumulative = 1.9439e-20
[OGL LOG][Proc: 0]global_index_init : 36 mu s
[OGL LOG][Proc: 0]global_index_init : 1 mu s
[OGL LOG][Proc: 0]global_index_init : 2 mu s
[OGL LOG][Proc: 0]global_index_init : 1 mu s
[OGL LOG][Proc: 0]update_host_matrix_data : 3512 mu s
[OGL LOG][Proc: 0]gather_initGuess : 1 mu s
[OGL LOG][Proc: 0]gather_RHS : 2761 mu s
[OGL LOG][Proc: 0]gather_global_matrix : 0 mu s
read from registry
[OGL LOG][Proc: 0]init_precond : 8 mu s
[OGL LOG][Proc: 0]generate_solver : 1 mu s
[OGL LOG][Proc: 0]solve : 232443 mu s
[OGL LOG][Proc: 0]retrieve_result_from_device : 1701 mu s
ISAIcudaGKOCG:  Solving for p, Initial residual = 0.74964, Final residual = 3.56748e-07, No Iterations 701
linear solve p 242471
time step continuity errors : sum local = 3.9029e-10, global = 3.42907e-21, cumulative = 2.28681e-20
ExecutionTime = 4.08 s  ClockTime = 4 s

Time = 0.003

Courant Number mean: 0.0846038 max: 0.943672
DILUPBiCGStab:  Solving for Ux, Initial residual = 0.0646795, Final residual = 0.00170435, No Iterations 5
DILUPBiCGStab:  Solving for Uy, Initial residual = 0.226339, Final residual = 0.004271, No Iterations 5
DILUPBiCGStab:  Solving for Uz, Initial residual = 0.765697, Final residual = 0.0189348, No Iterations 5
linear solve U 123881
[OGL LOG][Proc: 0]global_index_init : 20 mu s
[OGL LOG][Proc: 0]global_index_init : 1 mu s
[OGL LOG][Proc: 0]global_index_init : 2 mu s
[OGL LOG][Proc: 0]global_index_init : 1 mu s
[OGL LOG][Proc: 0]update_host_matrix_data : 4487 mu s
[OGL LOG][Proc: 0]gather_initGuess : 1 mu s
[OGL LOG][Proc: 0]gather_RHS : 2838 mu s
[OGL LOG][Proc: 0]gather_global_matrix : 0 mu s
read from registry
[OGL LOG][Proc: 0]init_precond : 7 mu s
[OGL LOG][Proc: 0]generate_solver : 0 mu s
[OGL LOG][Proc: 0]solve : 221897 mu s
[OGL LOG][Proc: 0]retrieve_result_from_device : 1744 mu s
ISAIcudaGKOCG:  Solving for p, Initial residual = 0.837716, Final residual = 3.60896e-07, No Iterations 673
linear solve p 232959
time step continuity errors : sum local = 3.57216e-10, global = -2.56815e-22, cumulative = 2.26112e-20
[OGL LOG][Proc: 0]global_index_init : 21 mu s
[OGL LOG][Proc: 0]global_index_init : 2 mu s
[OGL LOG][Proc: 0]global_index_init : 2 mu s
[OGL LOG][Proc: 0]global_index_init : 2 mu s
[OGL LOG][Proc: 0]update_host_matrix_data : 3516 mu s
[OGL LOG][Proc: 0]gather_initGuess : 1 mu s
[OGL LOG][Proc: 0]gather_RHS : 2697 mu s
[OGL LOG][Proc: 0]gather_global_matrix : 0 mu s
read from registry
[OGL LOG][Proc: 0]init_precond : 7 mu s
[OGL LOG][Proc: 0]generate_solver : 0 mu s
[OGL LOG][Proc: 0]solve : 223682 mu s
[OGL LOG][Proc: 0]retrieve_result_from_device : 2046 mu s
ISAIcudaGKOCG:  Solving for p, Initial residual = 0.805107, Final residual = 3.51053e-07, No Iterations 677
linear solve p 234039
time step continuity errors : sum local = 3.39038e-10, global = 6.08088e-22, cumulative = 2.32193e-20
ExecutionTime = 4.77 s  ClockTime = 5 s

End

Finalising parallel run
================================================================================
hash: 15b380c267d73fd04fab0dd3d178f02d
/*---------------------------------------------------------------------------*\
| =========                 |                                                 |
| \\      /  F ield         | OpenFOAM: The Open Source CFD Toolbox           |
|  \\    /   O peration     | Version:  2112                                  |
|   \\  /    A nd           | Website:  www.openfoam.com                      |
|    \\/     M anipulation  |                                                 |
\*---------------------------------------------------------------------------*/
Build  : d44c8318f0-20220111 OPENFOAM=2112 version=v2112
Arch   : "LSB;label=32;scalar=64"
Exec   : icoFoam -parallel
Date   : Jan 30 2022
Time   : 10:12:28
Host   : hkn0426.localdomain
PID    : 3637181
I/O    : uncollated
Case   : /hkfs/home/project/hk-project-test-fine/eq4036/data/code/ogl_labbook/lidDrivenCavity/solver/Variation_mesh/100/Variation_matrix_solver/BiCGStab_NoPrecond_CUDA/Variation_mpiRank/8/base
nProcs : 8
Hosts  :
(
    (hkn0426.localdomain 8)
)
Pstream initialized with:
    floatTransfer      : 0
    nProcsSimpleSum    : 0
    commsType          : nonBlocking
    polling iterations : 0
trapFpe: Floating point exception trapping enabled (FOAM_SIGFPE).
fileModificationChecking : Monitoring run-time modified files using timeStampMaster (fileModificationSkew 5, maxFileModificationPolls 20)
allowSystemOperations : Allowing user-supplied system call operations

// * * * * * * * * * * * * * * * * * * * * * * * * * * * * * * * * * * * * * //
Create time

Create mesh for time = 0


PISO: Operating solver in PISO mode

Reading transportProperties

Reading field p

Reading field U

Reading/calculating face flux field phi


Starting time loop

Time = 0.001

Courant Number mean: 0 max: 0
DILUPBiCGStab:  Solving for Ux, Initial residual = 1, Final residual = 0.00976191, No Iterations 5
DILUPBiCGStab:  Solving for Uy:  solution singularity
DILUPBiCGStab:  Solving for Uz:  solution singularity
linear solve U 67357
[OGL LOG][Proc: 0]global_index_init : 35287 mu s
[OGL LOG][Proc: 0]global_index_init : 2 mu s
[OGL LOG][Proc: 0]global_index_init : 1 mu s
[OGL LOG][Proc: 0]global_index_init : 1 mu s
[OGL LOG][Proc: 0]init_host_sparsity_pattern : 590518 mu s
[OGL LOG][Proc: 0]update_host_matrix_data : 5293 mu s
[OGL LOG][Proc: 0]convert_coo_to_csr : 936 mu s
[OGL LOG][Proc: 0]gather_initGuess : 4593 mu s
[OGL LOG][Proc: 0]gather_RHS : 1907 mu s
[OGL LOG][Proc: 0]gather_global_matrix : 4 mu s
[OGL LOG][Proc: 0]init_precond : 39 mu s
[OGL LOG][Proc: 0]generate_solver : 14 mu s
[OGL LOG][Proc: 0]solve : 397907 mu s
[OGL LOG][Proc: 0]retrieve_result_from_device : 2355 mu s
nonecudaGKOBiCGStab:  Solving for p, Initial residual = 1, Final residual = 5.4595e-07, No Iterations 706
linear solve p 2876831
time step continuity errors : sum local = 0.000424942, global = -1.21973e-18, cumulative = -1.21973e-18
[OGL LOG][Proc: 0]global_index_init : 65 mu s
[OGL LOG][Proc: 0]global_index_init : 1 mu s
[OGL LOG][Proc: 0]global_index_init : 2 mu s
[OGL LOG][Proc: 0]global_index_init : 1 mu s
[OGL LOG][Proc: 0]update_host_matrix_data : 3550 mu s
[OGL LOG][Proc: 0]gather_initGuess : 6 mu s
[OGL LOG][Proc: 0]gather_RHS : 3965 mu s
[OGL LOG][Proc: 0]gather_global_matrix : 0 mu s
read from registry
[OGL LOG][Proc: 0]init_precond : 16 mu s
[OGL LOG][Proc: 0]generate_solver : 1 mu s
[OGL LOG][Proc: 0]solve : 320216 mu s
[OGL LOG][Proc: 0]retrieve_result_from_device : 1750 mu s
nonecudaGKOBiCGStab:  Solving for p, Initial residual = 0.87555, Final residual = 4.23308e-07, No Iterations 700
linear solve p 331777
time step continuity errors : sum local = 1.1055e-09, global = 7.82601e-21, cumulative = -1.2119e-18
ExecutionTime = 3.49 s  ClockTime = 4 s

Time = 0.002

Courant Number mean: 0.0555313 max: 0.807219
DILUPBiCGStab:  Solving for Ux, Initial residual = 0.144608, Final residual = 0.00531428, No Iterations 5
DILUPBiCGStab:  Solving for Uy, Initial residual = 0.449861, Final residual = 0.0143643, No Iterations 5
DILUPBiCGStab:  Solving for Uz, Initial residual = 0.895862, Final residual = 0.0481941, No Iterations 5
linear solve U 126746
[OGL LOG][Proc: 0]global_index_init : 16 mu s
[OGL LOG][Proc: 0]global_index_init : 1 mu s
[OGL LOG][Proc: 0]global_index_init : 1 mu s
[OGL LOG][Proc: 0]global_index_init : 1 mu s
[OGL LOG][Proc: 0]update_host_matrix_data : 3584 mu s
[OGL LOG][Proc: 0]gather_initGuess : 0 mu s
[OGL LOG][Proc: 0]gather_RHS : 3654 mu s
[OGL LOG][Proc: 0]gather_global_matrix : 0 mu s
read from registry
[OGL LOG][Proc: 0]init_precond : 8 mu s
[OGL LOG][Proc: 0]generate_solver : 1 mu s
[OGL LOG][Proc: 0]solve : 324991 mu s
[OGL LOG][Proc: 0]retrieve_result_from_device : 2165 mu s
nonecudaGKOBiCGStab:  Solving for p, Initial residual = 0.937205, Final residual = 1.03609e-07, No Iterations 714
linear solve p 336411
time step continuity errors : sum local = 6.85724e-10, global = -2.06431e-21, cumulative = -1.21397e-18
[OGL LOG][Proc: 0]global_index_init : 6 mu s
[OGL LOG][Proc: 0]global_index_init : 2 mu s
[OGL LOG][Proc: 0]global_index_init : 2 mu s
[OGL LOG][Proc: 0]global_index_init : 1 mu s
[OGL LOG][Proc: 0]update_host_matrix_data : 4507 mu s
[OGL LOG][Proc: 0]gather_initGuess : 1 mu s
[OGL LOG][Proc: 0]gather_RHS : 2787 mu s
[OGL LOG][Proc: 0]gather_global_matrix : 0 mu s
read from registry
[OGL LOG][Proc: 0]init_precond : 7 mu s
[OGL LOG][Proc: 0]generate_solver : 1 mu s
[OGL LOG][Proc: 0]solve : 363486 mu s
[OGL LOG][Proc: 0]retrieve_result_from_device : 2267 mu s
nonecudaGKOBiCGStab:  Solving for p, Initial residual = 0.86032, Final residual = 1.94079e-07, No Iterations 784
linear solve p 375093
time step continuity errors : sum local = 1.27718e-09, global = 5.4139e-22, cumulative = -1.21342e-18
ExecutionTime = 4.41 s  ClockTime = 5 s

Time = 0.003

Courant Number mean: 0.0852321 max: 0.944278
DILUPBiCGStab:  Solving for Ux, Initial residual = 0.0732673, Final residual = 0.00182476, No Iterations 5
DILUPBiCGStab:  Solving for Uy, Initial residual = 0.271788, Final residual = 0.00675296, No Iterations 5
DILUPBiCGStab:  Solving for Uz, Initial residual = 0.828146, Final residual = 0.0271137, No Iterations 5
linear solve U 124494
[OGL LOG][Proc: 0]global_index_init : 6 mu s
[OGL LOG][Proc: 0]global_index_init : 1 mu s
[OGL LOG][Proc: 0]global_index_init : 2 mu s
[OGL LOG][Proc: 0]global_index_init : 1 mu s
[OGL LOG][Proc: 0]update_host_matrix_data : 3532 mu s
[OGL LOG][Proc: 0]gather_initGuess : 0 mu s
[OGL LOG][Proc: 0]gather_RHS : 2763 mu s
[OGL LOG][Proc: 0]gather_global_matrix : 0 mu s
read from registry
[OGL LOG][Proc: 0]init_precond : 7 mu s
[OGL LOG][Proc: 0]generate_solver : 1 mu s
[OGL LOG][Proc: 0]solve : 324790 mu s
[OGL LOG][Proc: 0]retrieve_result_from_device : 2541 mu s
nonecudaGKOBiCGStab:  Solving for p, Initial residual = 0.92637, Final residual = 3.16715e-07, No Iterations 713
linear solve p 335692
time step continuity errors : sum local = 1.55866e-09, global = 1.64115e-20, cumulative = -1.19701e-18
[OGL LOG][Proc: 0]global_index_init : 19 mu s
[OGL LOG][Proc: 0]global_index_init : 1 mu s
[OGL LOG][Proc: 0]global_index_init : 2 mu s
[OGL LOG][Proc: 0]global_index_init : 1 mu s
[OGL LOG][Proc: 0]update_host_matrix_data : 3534 mu s
[OGL LOG][Proc: 0]gather_initGuess : 1 mu s
[OGL LOG][Proc: 0]gather_RHS : 2756 mu s
[OGL LOG][Proc: 0]gather_global_matrix : 0 mu s
read from registry
[OGL LOG][Proc: 0]init_precond : 9 mu s
[OGL LOG][Proc: 0]generate_solver : 1 mu s
[OGL LOG][Proc: 0]solve : 318587 mu s
[OGL LOG][Proc: 0]retrieve_result_from_device : 2295 mu s
nonecudaGKOBiCGStab:  Solving for p, Initial residual = 0.861649, Final residual = 8.04505e-07, No Iterations 700
linear solve p 329467
time step continuity errors : sum local = 3.84835e-09, global = 1.67934e-20, cumulative = -1.18022e-18
ExecutionTime = 5.29 s  ClockTime = 6 s

End

Finalising parallel run
================================================================================
hash: a55abca9cb7330d25202a6fda432abd3
/*---------------------------------------------------------------------------*\
| =========                 |                                                 |
| \\      /  F ield         | OpenFOAM: The Open Source CFD Toolbox           |
|  \\    /   O peration     | Version:  2112                                  |
|   \\  /    A nd           | Website:  www.openfoam.com                      |
|    \\/     M anipulation  |                                                 |
\*---------------------------------------------------------------------------*/
Build  : d44c8318f0-20220111 OPENFOAM=2112 version=v2112
Arch   : "LSB;label=32;scalar=64"
Exec   : icoFoam -parallel
Date   : Jan 30 2022
Time   : 10:12:35
Host   : hkn0426.localdomain
PID    : 3637407
I/O    : uncollated
Case   : /hkfs/home/project/hk-project-test-fine/eq4036/data/code/ogl_labbook/lidDrivenCavity/solver/Variation_mesh/100/Variation_matrix_solver/CG_NoPrecond_CUDA/Variation_mpiRank/8/base
nProcs : 8
Hosts  :
(
    (hkn0426.localdomain 8)
)
Pstream initialized with:
    floatTransfer      : 0
    nProcsSimpleSum    : 0
    commsType          : nonBlocking
    polling iterations : 0
trapFpe: Floating point exception trapping enabled (FOAM_SIGFPE).
fileModificationChecking : Monitoring run-time modified files using timeStampMaster (fileModificationSkew 5, maxFileModificationPolls 20)
allowSystemOperations : Allowing user-supplied system call operations

// * * * * * * * * * * * * * * * * * * * * * * * * * * * * * * * * * * * * * //
Create time

Create mesh for time = 0


PISO: Operating solver in PISO mode

Reading transportProperties

Reading field p

Reading field U

Reading/calculating face flux field phi


Starting time loop

Time = 0.001

Courant Number mean: 0 max: 0
DILUPBiCGStab:  Solving for Ux, Initial residual = 1, Final residual = 0.00976191, No Iterations 5
DILUPBiCGStab:  Solving for Uy:  solution singularity
DILUPBiCGStab:  Solving for Uz:  solution singularity
linear solve U 66760
[OGL LOG][Proc: 0]global_index_init : 5060 mu s
[OGL LOG][Proc: 0]global_index_init : 2 mu s
[OGL LOG][Proc: 0]global_index_init : 2 mu s
[OGL LOG][Proc: 0]global_index_init : 1 mu s
[OGL LOG][Proc: 0]init_host_sparsity_pattern : 591615 mu s
[OGL LOG][Proc: 0]update_host_matrix_data : 4787 mu s
[OGL LOG][Proc: 0]convert_coo_to_csr : 926 mu s
[OGL LOG][Proc: 0]gather_initGuess : 4424 mu s
[OGL LOG][Proc: 0]gather_RHS : 1812 mu s
[OGL LOG][Proc: 0]gather_global_matrix : 0 mu s
[OGL LOG][Proc: 0]init_precond : 49 mu s
[OGL LOG][Proc: 0]generate_solver : 25 mu s
[OGL LOG][Proc: 0]solve : 252323 mu s
[OGL LOG][Proc: 0]retrieve_result_from_device : 2318 mu s
nonecudaGKOCG:  Solving for p, Initial residual = 1, Final residual = 9.67315e-07, No Iterations 901
linear solve p 2709600
time step continuity errors : sum local = 5.59741e-10, global = 1.59842e-20, cumulative = 1.59842e-20
[OGL LOG][Proc: 0]global_index_init : 70 mu s
[OGL LOG][Proc: 0]global_index_init : 3 mu s
[OGL LOG][Proc: 0]global_index_init : 2 mu s
[OGL LOG][Proc: 0]global_index_init : 2 mu s
[OGL LOG][Proc: 0]update_host_matrix_data : 3604 mu s
[OGL LOG][Proc: 0]gather_initGuess : 6 mu s
[OGL LOG][Proc: 0]gather_RHS : 3852 mu s
[OGL LOG][Proc: 0]gather_global_matrix : 0 mu s
read from registry
[OGL LOG][Proc: 0]init_precond : 17 mu s
[OGL LOG][Proc: 0]generate_solver : 1 mu s
[OGL LOG][Proc: 0]solve : 201366 mu s
[OGL LOG][Proc: 0]retrieve_result_from_device : 1667 mu s
nonecudaGKOCG:  Solving for p, Initial residual = 0.777378, Final residual = 6.70163e-07, No Iterations 901
linear solve p 212672
time step continuity errors : sum local = 4.88723e-10, global = -9.19153e-22, cumulative = 1.5065e-20
ExecutionTime = 3.2 s  ClockTime = 4 s

Time = 0.002

Courant Number mean: 0.0555224 max: 0.807219
DILUPBiCGStab:  Solving for Ux, Initial residual = 0.137481, Final residual = 0.00480444, No Iterations 5
DILUPBiCGStab:  Solving for Uy, Initial residual = 0.431367, Final residual = 0.0127824, No Iterations 5
DILUPBiCGStab:  Solving for Uz, Initial residual = 0.97357, Final residual = 0.0274119, No Iterations 5
linear solve U 132242
[OGL LOG][Proc: 0]global_index_init : 9 mu s
[OGL LOG][Proc: 0]global_index_init : 2 mu s
[OGL LOG][Proc: 0]global_index_init : 2 mu s
[OGL LOG][Proc: 0]global_index_init : 2 mu s
[OGL LOG][Proc: 0]update_host_matrix_data : 3575 mu s
[OGL LOG][Proc: 0]gather_initGuess : 1 mu s
[OGL LOG][Proc: 0]gather_RHS : 3455 mu s
[OGL LOG][Proc: 0]gather_global_matrix : 0 mu s
read from registry
[OGL LOG][Proc: 0]init_precond : 8 mu s
[OGL LOG][Proc: 0]generate_solver : 1 mu s
[OGL LOG][Proc: 0]solve : 200887 mu s
[OGL LOG][Proc: 0]retrieve_result_from_device : 2203 mu s
nonecudaGKOCG:  Solving for p, Initial residual = 0.808994, Final residual = 4.77156e-07, No Iterations 901
linear solve p 212150
time step continuity errors : sum local = 5.11532e-10, global = 2.93006e-21, cumulative = 1.79951e-20
[OGL LOG][Proc: 0]global_index_init : 34 mu s
[OGL LOG][Proc: 0]global_index_init : 1 mu s
[OGL LOG][Proc: 0]global_index_init : 1 mu s
[OGL LOG][Proc: 0]global_index_init : 1 mu s
[OGL LOG][Proc: 0]update_host_matrix_data : 3587 mu s
[OGL LOG][Proc: 0]gather_initGuess : 1 mu s
[OGL LOG][Proc: 0]gather_RHS : 2645 mu s
[OGL LOG][Proc: 0]gather_global_matrix : 0 mu s
read from registry
[OGL LOG][Proc: 0]init_precond : 7 mu s
[OGL LOG][Proc: 0]generate_solver : 1 mu s
[OGL LOG][Proc: 0]solve : 201081 mu s
[OGL LOG][Proc: 0]retrieve_result_from_device : 2282 mu s
nonecudaGKOCG:  Solving for p, Initial residual = 0.74964, Final residual = 4.06032e-07, No Iterations 901
linear solve p 211645
time step continuity errors : sum local = 4.4421e-10, global = -5.39336e-22, cumulative = 1.74557e-20
ExecutionTime = 3.85 s  ClockTime = 5 s

Time = 0.003

Courant Number mean: 0.0846038 max: 0.943672
DILUPBiCGStab:  Solving for Ux, Initial residual = 0.0646795, Final residual = 0.00170435, No Iterations 5
DILUPBiCGStab:  Solving for Uy, Initial residual = 0.226339, Final residual = 0.00427099, No Iterations 5
DILUPBiCGStab:  Solving for Uz, Initial residual = 0.765697, Final residual = 0.0189349, No Iterations 5
linear solve U 123288
[OGL LOG][Proc: 0]global_index_init : 25 mu s
[OGL LOG][Proc: 0]global_index_init : 2 mu s
[OGL LOG][Proc: 0]global_index_init : 1 mu s
[OGL LOG][Proc: 0]global_index_init : 1 mu s
[OGL LOG][Proc: 0]update_host_matrix_data : 3589 mu s
[OGL LOG][Proc: 0]gather_initGuess : 1 mu s
[OGL LOG][Proc: 0]gather_RHS : 6977 mu s
[OGL LOG][Proc: 0]gather_global_matrix : 0 mu s
read from registry
[OGL LOG][Proc: 0]init_precond : 7 mu s
[OGL LOG][Proc: 0]generate_solver : 1 mu s
[OGL LOG][Proc: 0]solve : 201441 mu s
[OGL LOG][Proc: 0]retrieve_result_from_device : 2252 mu s
nonecudaGKOCG:  Solving for p, Initial residual = 0.837716, Final residual = 4.1872e-07, No Iterations 901
linear solve p 216287
time step continuity errors : sum local = 4.14454e-10, global = -5.86232e-21, cumulative = 1.15934e-20
[OGL LOG][Proc: 0]global_index_init : 39 mu s
[OGL LOG][Proc: 0]global_index_init : 1 mu s
[OGL LOG][Proc: 0]global_index_init : 1 mu s
[OGL LOG][Proc: 0]global_index_init : 1 mu s
[OGL LOG][Proc: 0]update_host_matrix_data : 4255 mu s
[OGL LOG][Proc: 0]gather_initGuess : 1 mu s
[OGL LOG][Proc: 0]gather_RHS : 2715 mu s
[OGL LOG][Proc: 0]gather_global_matrix : 0 mu s
read from registry
[OGL LOG][Proc: 0]init_precond : 7 mu s
[OGL LOG][Proc: 0]generate_solver : 1 mu s
[OGL LOG][Proc: 0]solve : 201012 mu s
[OGL LOG][Proc: 0]retrieve_result_from_device : 2221 mu s
nonecudaGKOCG:  Solving for p, Initial residual = 0.805107, Final residual = 3.93572e-07, No Iterations 901
linear solve p 212299
time step continuity errors : sum local = 3.80108e-10, global = 1.16879e-21, cumulative = 1.27622e-20
ExecutionTime = 4.48 s  ClockTime = 5 s

End

Finalising parallel run
================================================================================
hash: 62c2b87315e4bc9f8fd71020e5456625
/*---------------------------------------------------------------------------*\
| =========                 |                                                 |
| \\      /  F ield         | OpenFOAM: The Open Source CFD Toolbox           |
|  \\    /   O peration     | Version:  2112                                  |
|   \\  /    A nd           | Website:  www.openfoam.com                      |
|    \\/     M anipulation  |                                                 |
\*---------------------------------------------------------------------------*/
Build  : d44c8318f0-20220111 OPENFOAM=2112 version=v2112
Arch   : "LSB;label=32;scalar=64"
Exec   : icoFoam -parallel
Date   : Jan 30 2022
Time   : 10:12:42
Host   : hkn0426.localdomain
PID    : 3637631
I/O    : uncollated
Case   : /hkfs/home/project/hk-project-test-fine/eq4036/data/code/ogl_labbook/lidDrivenCavity/solver/Variation_mesh/100/Variation_matrix_solver/BiCGStab_ISAI_CUDA/Variation_mpiRank/8/base
nProcs : 8
Hosts  :
(
    (hkn0426.localdomain 8)
)
Pstream initialized with:
    floatTransfer      : 0
    nProcsSimpleSum    : 0
    commsType          : nonBlocking
    polling iterations : 0
trapFpe: Floating point exception trapping enabled (FOAM_SIGFPE).
fileModificationChecking : Monitoring run-time modified files using timeStampMaster (fileModificationSkew 5, maxFileModificationPolls 20)
allowSystemOperations : Allowing user-supplied system call operations

// * * * * * * * * * * * * * * * * * * * * * * * * * * * * * * * * * * * * * //
Create time

Create mesh for time = 0


PISO: Operating solver in PISO mode

Reading transportProperties

Reading field p

Reading field U

Reading/calculating face flux field phi


Starting time loop

Time = 0.001

Courant Number mean: 0 max: 0
DILUPBiCGStab:  Solving for Ux, Initial residual = 1, Final residual = 0.00976191, No Iterations 5
DILUPBiCGStab:  Solving for Uy:  solution singularity
DILUPBiCGStab:  Solving for Uz:  solution singularity
linear solve U 67244
[OGL LOG][Proc: 0]global_index_init : 5468 mu s
[OGL LOG][Proc: 0]global_index_init : 2 mu s
[OGL LOG][Proc: 0]global_index_init : 2 mu s
[OGL LOG][Proc: 0]global_index_init : 1 mu s
[OGL LOG][Proc: 0]init_host_sparsity_pattern : 594162 mu s
[OGL LOG][Proc: 0]update_host_matrix_data : 5205 mu s
[OGL LOG][Proc: 0]convert_coo_to_csr : 932 mu s
[OGL LOG][Proc: 0]gather_initGuess : 4487 mu s
[OGL LOG][Proc: 0]gather_RHS : 1872 mu s
[OGL LOG][Proc: 0]gather_global_matrix : 4 mu s
[OGL LOG][Proc: 0]init_precond : 64523 mu s
[OGL LOG][Proc: 0]generate_solver : 6 mu s
[OGL LOG][Proc: 0]solve : 1187982 mu s
[OGL LOG][Proc: 0]retrieve_result_from_device : 2858 mu s
ISAIcudaGKOBiCGStab:  Solving for p, Initial residual = 1, Final residual = 2.57632e-07, No Iterations 1570
linear solve p 3717227
time step continuity errors : sum local = 3.53917e-09, global = 6.22381e-21, cumulative = 6.22381e-21
[OGL LOG][Proc: 0]global_index_init : 27 mu s
[OGL LOG][Proc: 0]global_index_init : 1 mu s
[OGL LOG][Proc: 0]global_index_init : 2 mu s
[OGL LOG][Proc: 0]global_index_init : 1 mu s
[OGL LOG][Proc: 0]update_host_matrix_data : 3612 mu s
[OGL LOG][Proc: 0]gather_initGuess : 6 mu s
[OGL LOG][Proc: 0]gather_RHS : 4037 mu s
[OGL LOG][Proc: 0]gather_global_matrix : 0 mu s
read from registry
[OGL LOG][Proc: 0]init_precond : 19 mu s
[OGL LOG][Proc: 0]generate_solver : 0 mu s
[OGL LOG][Proc: 0]solve : 468352 mu s
[OGL LOG][Proc: 0]retrieve_result_from_device : 2420 mu s
ISAIcudaGKOBiCGStab:  Solving for p, Initial residual = 0.777377, Final residual = 9.7166e-07, No Iterations 713
linear solve p 480579
time step continuity errors : sum local = 7.1005e-10, global = 3.69396e-21, cumulative = 9.91777e-21
ExecutionTime = 4.49 s  ClockTime = 5 s

Time = 0.002

Courant Number mean: 0.0555224 max: 0.807219
DILUPBiCGStab:  Solving for Ux, Initial residual = 0.137481, Final residual = 0.00480444, No Iterations 5
DILUPBiCGStab:  Solving for Uy, Initial residual = 0.431367, Final residual = 0.0127824, No Iterations 5
DILUPBiCGStab:  Solving for Uz, Initial residual = 0.97357, Final residual = 0.0274114, No Iterations 5
linear solve U 124954
[OGL LOG][Proc: 0]global_index_init : 18 mu s
[OGL LOG][Proc: 0]global_index_init : 2 mu s
[OGL LOG][Proc: 0]global_index_init : 1 mu s
[OGL LOG][Proc: 0]global_index_init : 1 mu s
[OGL LOG][Proc: 0]update_host_matrix_data : 4460 mu s
[OGL LOG][Proc: 0]gather_initGuess : 3 mu s
[OGL LOG][Proc: 0]gather_RHS : 3481 mu s
[OGL LOG][Proc: 0]gather_global_matrix : 0 mu s
read from registry
[OGL LOG][Proc: 0]init_precond : 8 mu s
[OGL LOG][Proc: 0]generate_solver : 0 mu s
[OGL LOG][Proc: 0]solve : 433885 mu s
[OGL LOG][Proc: 0]retrieve_result_from_device : 1636 mu s
ISAIcudaGKOBiCGStab:  Solving for p, Initial residual = 0.808993, Final residual = 7.09204e-07, No Iterations 658
linear solve p 445641
time step continuity errors : sum local = 7.60509e-10, global = 2.64486e-21, cumulative = 1.25626e-20
[OGL LOG][Proc: 0]global_index_init : 41 mu s
[OGL LOG][Proc: 0]global_index_init : 6 mu s
[OGL LOG][Proc: 0]global_index_init : 1 mu s
[OGL LOG][Proc: 0]global_index_init : 1 mu s
[OGL LOG][Proc: 0]update_host_matrix_data : 3611 mu s
[OGL LOG][Proc: 0]gather_initGuess : 1 mu s
[OGL LOG][Proc: 0]gather_RHS : 2780 mu s
[OGL LOG][Proc: 0]gather_global_matrix : 0 mu s
read from registry
[OGL LOG][Proc: 0]init_precond : 8 mu s
[OGL LOG][Proc: 0]generate_solver : 0 mu s
[OGL LOG][Proc: 0]solve : 412625 mu s
[OGL LOG][Proc: 0]retrieve_result_from_device : 1511 mu s
ISAIcudaGKOBiCGStab:  Solving for p, Initial residual = 0.74964, Final residual = 7.01578e-07, No Iterations 624
linear solve p 423078
time step continuity errors : sum local = 7.67831e-10, global = -1.48106e-21, cumulative = 1.10816e-20
ExecutionTime = 5.57 s  ClockTime = 6 s

Time = 0.003

Courant Number mean: 0.0846038 max: 0.943672
DILUPBiCGStab:  Solving for Ux, Initial residual = 0.0646795, Final residual = 0.00170435, No Iterations 5
DILUPBiCGStab:  Solving for Uy, Initial residual = 0.226339, Final residual = 0.004271, No Iterations 5
DILUPBiCGStab:  Solving for Uz, Initial residual = 0.765697, Final residual = 0.0189348, No Iterations 5
linear solve U 123375
[OGL LOG][Proc: 0]global_index_init : 20 mu s
[OGL LOG][Proc: 0]global_index_init : 2 mu s
[OGL LOG][Proc: 0]global_index_init : 2 mu s
[OGL LOG][Proc: 0]global_index_init : 2 mu s
[OGL LOG][Proc: 0]update_host_matrix_data : 3563 mu s
[OGL LOG][Proc: 0]gather_initGuess : 0 mu s
[OGL LOG][Proc: 0]gather_RHS : 2755 mu s
[OGL LOG][Proc: 0]gather_global_matrix : 0 mu s
read from registry
[OGL LOG][Proc: 0]init_precond : 8 mu s
[OGL LOG][Proc: 0]generate_solver : 0 mu s
[OGL LOG][Proc: 0]solve : 379333 mu s
[OGL LOG][Proc: 0]retrieve_result_from_device : 1477 mu s
ISAIcudaGKOBiCGStab:  Solving for p, Initial residual = 0.837715, Final residual = 9.27303e-07, No Iterations 576
linear solve p 389173
time step continuity errors : sum local = 9.18463e-10, global = 9.82665e-22, cumulative = 1.20642e-20
[OGL LOG][Proc: 0]global_index_init : 36 mu s
[OGL LOG][Proc: 0]global_index_init : 2 mu s
[OGL LOG][Proc: 0]global_index_init : 1 mu s
[OGL LOG][Proc: 0]global_index_init : 1 mu s
[OGL LOG][Proc: 0]update_host_matrix_data : 3577 mu s
[OGL LOG][Proc: 0]gather_initGuess : 1 mu s
[OGL LOG][Proc: 0]gather_RHS : 2754 mu s
[OGL LOG][Proc: 0]gather_global_matrix : 0 mu s
read from registry
[OGL LOG][Proc: 0]init_precond : 7 mu s
[OGL LOG][Proc: 0]generate_solver : 0 mu s
[OGL LOG][Proc: 0]solve : 417299 mu s
[OGL LOG][Proc: 0]retrieve_result_from_device : 1398 mu s
ISAIcudaGKOBiCGStab:  Solving for p, Initial residual = 0.805106, Final residual = 8.48519e-07, No Iterations 633
linear solve p 427089
time step continuity errors : sum local = 1.16488e-08, global = -8.01083e-21, cumulative = 4.0534e-21
ExecutionTime = 6.61 s  ClockTime = 7 s

End

Finalising parallel run
================================================================================
hash: 56f27265179b6864f4d0a9fb9700ee35
/*---------------------------------------------------------------------------*\
| =========                 |                                                 |
| \\      /  F ield         | OpenFOAM: The Open Source CFD Toolbox           |
|  \\    /   O peration     | Version:  2112                                  |
|   \\  /    A nd           | Website:  www.openfoam.com                      |
|    \\/     M anipulation  |                                                 |
\*---------------------------------------------------------------------------*/
Build  : d44c8318f0-20220111 OPENFOAM=2112 version=v2112
Arch   : "LSB;label=32;scalar=64"
Exec   : icoFoam -parallel
Date   : Jan 30 2022
Time   : 10:15:48
Host   : hkn0719.localdomain
PID    : 1009176
I/O    : uncollated
Case   : /hkfs/home/project/hk-project-test-fine/eq4036/data/code/ogl_labbook/lidDrivenCavity/solver/Variation_mesh/200/Variation_matrix_solver/CG_ISAI_CUDA/Variation_mpiRank/8/base
nProcs : 8
Hosts  :
(
    (hkn0719.localdomain 8)
)
Pstream initialized with:
    floatTransfer      : 0
    nProcsSimpleSum    : 0
    commsType          : nonBlocking
    polling iterations : 0
trapFpe: Floating point exception trapping enabled (FOAM_SIGFPE).
fileModificationChecking : Monitoring run-time modified files using timeStampMaster (fileModificationSkew 5, maxFileModificationPolls 20)
allowSystemOperations : Allowing user-supplied system call operations

// * * * * * * * * * * * * * * * * * * * * * * * * * * * * * * * * * * * * * //
Create time

Create mesh for time = 0


PISO: Operating solver in PISO mode

Reading transportProperties

Reading field p

Reading field U

Reading/calculating face flux field phi


Starting time loop

Time = 0.0005

Courant Number mean: 0 max: 0
DILUPBiCGStab:  Solving for Ux, Initial residual = 1, Final residual = 0.0216481, No Iterations 5
DILUPBiCGStab:  Solving for Uy:  solution singularity
DILUPBiCGStab:  Solving for Uz:  solution singularity
linear solve U 652390
[OGL LOG][Proc: 0]global_index_init : 32 mu s
[OGL LOG][Proc: 0]global_index_init : 1 mu s
[OGL LOG][Proc: 0]global_index_init : 1 mu s
[OGL LOG][Proc: 0]global_index_init : 1 mu s
[OGL LOG][Proc: 0]init_host_sparsity_pattern : 19720991 mu s
[OGL LOG][Proc: 0]update_host_matrix_data : 45113 mu s
[OGL LOG][Proc: 0]convert_coo_to_csr : 2638 mu s
[OGL LOG][Proc: 0]gather_initGuess : 32561 mu s
[OGL LOG][Proc: 0]gather_RHS : 25722 mu s
[OGL LOG][Proc: 0]gather_global_matrix : 0 mu s
[OGL LOG][Proc: 0]init_precond : 505727 mu s
[OGL LOG][Proc: 0]generate_solver : 18 mu s
[OGL LOG][Proc: 0]solve : 2871630 mu s
[OGL LOG][Proc: 0]retrieve_result_from_device : 23520 mu s
ISAIcudaGKOCG:  Solving for p, Initial residual = 1, Final residual = 9.89161e-07, No Iterations 1278
linear solve p 25376372
time step continuity errors : sum local = 1.87191e-10, global = -3.81191e-21, cumulative = -3.81191e-21
[OGL LOG][Proc: 0]global_index_init : 57 mu s
[OGL LOG][Proc: 0]global_index_init : 4 mu s
[OGL LOG][Proc: 0]global_index_init : 2 mu s
[OGL LOG][Proc: 0]global_index_init : 1 mu s
[OGL LOG][Proc: 0]update_host_matrix_data : 34397 mu s
[OGL LOG][Proc: 0]gather_initGuess : 6 mu s
[OGL LOG][Proc: 0]gather_RHS : 28820 mu s
[OGL LOG][Proc: 0]gather_global_matrix : 0 mu s
read from registry
[OGL LOG][Proc: 0]init_precond : 20 mu s
[OGL LOG][Proc: 0]generate_solver : 0 mu s
[OGL LOG][Proc: 0]solve : 2730965 mu s
[OGL LOG][Proc: 0]retrieve_result_from_device : 24628 mu s
ISAIcudaGKOCG:  Solving for p, Initial residual = 0.81518, Final residual = 8.41e-07, No Iterations 1276
linear solve p 2832880
time step continuity errors : sum local = 1.93317e-10, global = 7.73867e-22, cumulative = -3.03805e-21
ExecutionTime = 32.77 s  ClockTime = 34 s

Time = 0.001

Courant Number mean: 0.0392461 max: 0.865942
DILUPBiCGStab:  Solving for Ux, Initial residual = 0.117616, Final residual = 0.0131468, No Iterations 5
DILUPBiCGStab:  Solving for Uy, Initial residual = 0.506037, Final residual = 0.0494692, No Iterations 5
DILUPBiCGStab:  Solving for Uz, Initial residual = 0.96068, Final residual = 0.101188, No Iterations 5
linear solve U 1296248
[OGL LOG][Proc: 0]global_index_init : 8 mu s
[OGL LOG][Proc: 0]global_index_init : 1 mu s
[OGL LOG][Proc: 0]global_index_init : 1 mu s
[OGL LOG][Proc: 0]global_index_init : 1 mu s
[OGL LOG][Proc: 0]update_host_matrix_data : 34345 mu s
[OGL LOG][Proc: 0]gather_initGuess : 1 mu s
[OGL LOG][Proc: 0]gather_RHS : 28981 mu s
[OGL LOG][Proc: 0]gather_global_matrix : 0 mu s
read from registry
[OGL LOG][Proc: 0]init_precond : 9 mu s
[OGL LOG][Proc: 0]generate_solver : 1 mu s
[OGL LOG][Proc: 0]solve : 2738780 mu s
[OGL LOG][Proc: 0]retrieve_result_from_device : 24832 mu s
ISAIcudaGKOCG:  Solving for p, Initial residual = 0.897317, Final residual = 8.17965e-07, No Iterations 1276
linear solve p 2840995
time step continuity errors : sum local = 4.17147e-10, global = 5.45645e-21, cumulative = 2.4184e-21
[OGL LOG][Proc: 0]global_index_init : 792 mu s
[OGL LOG][Proc: 0]global_index_init : 2 mu s
[OGL LOG][Proc: 0]global_index_init : 2 mu s
[OGL LOG][Proc: 0]global_index_init : 1 mu s
[OGL LOG][Proc: 0]update_host_matrix_data : 34372 mu s
[OGL LOG][Proc: 0]gather_initGuess : 1 mu s
[OGL LOG][Proc: 0]gather_RHS : 28763 mu s
[OGL LOG][Proc: 0]gather_global_matrix : 0 mu s
read from registry
[OGL LOG][Proc: 0]init_precond : 11 mu s
[OGL LOG][Proc: 0]generate_solver : 1 mu s
[OGL LOG][Proc: 0]solve : 2731569 mu s
[OGL LOG][Proc: 0]retrieve_result_from_device : 24294 mu s
ISAIcudaGKOCG:  Solving for p, Initial residual = 0.846842, Final residual = 7.73389e-07, No Iterations 1276
linear solve p 2833942
time step continuity errors : sum local = 4.02269e-10, global = -2.20683e-21, cumulative = 2.11565e-22
ExecutionTime = 40.6 s  ClockTime = 41 s

Time = 0.0015

Courant Number mean: 0.0615403 max: 1.02143
DILUPBiCGStab:  Solving for Ux, Initial residual = 0.0685124, Final residual = 0.00554306, No Iterations 5
DILUPBiCGStab:  Solving for Uy, Initial residual = 0.357897, Final residual = 0.0211478, No Iterations 5
DILUPBiCGStab:  Solving for Uz, Initial residual = 0.820139, Final residual = 0.0702935, No Iterations 5
linear solve U 1305997
[OGL LOG][Proc: 0]global_index_init : 67 mu s
[OGL LOG][Proc: 0]global_index_init : 1 mu s
[OGL LOG][Proc: 0]global_index_init : 1 mu s
[OGL LOG][Proc: 0]global_index_init : 1 mu s
[OGL LOG][Proc: 0]update_host_matrix_data : 35698 mu s
[OGL LOG][Proc: 0]gather_initGuess : 1 mu s
[OGL LOG][Proc: 0]gather_RHS : 28815 mu s
[OGL LOG][Proc: 0]gather_global_matrix : 0 mu s
read from registry
[OGL LOG][Proc: 0]init_precond : 9 mu s
[OGL LOG][Proc: 0]generate_solver : 1 mu s
[OGL LOG][Proc: 0]solve : 2195903 mu s
[OGL LOG][Proc: 0]retrieve_result_from_device : 23946 mu s
ISAIcudaGKOCG:  Solving for p, Initial residual = 0.937568, Final residual = 1.21054e-07, No Iterations 1021
linear solve p 2298256
time step continuity errors : sum local = 8.03127e-11, global = 1.30059e-21, cumulative = 1.51215e-21
[OGL LOG][Proc: 0]global_index_init : 10 mu s
[OGL LOG][Proc: 0]global_index_init : 1 mu s
[OGL LOG][Proc: 0]global_index_init : 1 mu s
[OGL LOG][Proc: 0]global_index_init : 1 mu s
[OGL LOG][Proc: 0]update_host_matrix_data : 34571 mu s
[OGL LOG][Proc: 0]gather_initGuess : 1 mu s
[OGL LOG][Proc: 0]gather_RHS : 28796 mu s
[OGL LOG][Proc: 0]gather_global_matrix : 0 mu s
read from registry
[OGL LOG][Proc: 0]init_precond : 8 mu s
[OGL LOG][Proc: 0]generate_solver : 1 mu s
[OGL LOG][Proc: 0]solve : 1887768 mu s
[OGL LOG][Proc: 0]retrieve_result_from_device : 23856 mu s
ISAIcudaGKOCG:  Solving for p, Initial residual = 0.905008, Final residual = 7.59813e-07, No Iterations 881
linear solve p 1988984
time step continuity errors : sum local = 5.00096e-10, global = -4.34893e-21, cumulative = -2.83678e-21
ExecutionTime = 47.05 s  ClockTime = 48 s

End

Finalising parallel run
================================================================================
hash: bb8a81489516dfe3d47b44164277f67f
/*---------------------------------------------------------------------------*\
| =========                 |                                                 |
| \\      /  F ield         | OpenFOAM: The Open Source CFD Toolbox           |
|  \\    /   O peration     | Version:  2112                                  |
|   \\  /    A nd           | Website:  www.openfoam.com                      |
|    \\/     M anipulation  |                                                 |
\*---------------------------------------------------------------------------*/
Build  : d44c8318f0-20220111 OPENFOAM=2112 version=v2112
Arch   : "LSB;label=32;scalar=64"
Exec   : icoFoam -parallel
Date   : Jan 30 2022
Time   : 10:16:38
Host   : hkn0719.localdomain
PID    : 1009456
I/O    : uncollated
Case   : /hkfs/home/project/hk-project-test-fine/eq4036/data/code/ogl_labbook/lidDrivenCavity/solver/Variation_mesh/200/Variation_matrix_solver/BiCGStab_NoPrecond_CUDA/Variation_mpiRank/8/base
nProcs : 8
Hosts  :
(
    (hkn0719.localdomain 8)
)
Pstream initialized with:
    floatTransfer      : 0
    nProcsSimpleSum    : 0
    commsType          : nonBlocking
    polling iterations : 0
trapFpe: Floating point exception trapping enabled (FOAM_SIGFPE).
fileModificationChecking : Monitoring run-time modified files using timeStampMaster (fileModificationSkew 5, maxFileModificationPolls 20)
allowSystemOperations : Allowing user-supplied system call operations

// * * * * * * * * * * * * * * * * * * * * * * * * * * * * * * * * * * * * * //
Create time

Create mesh for time = 0


PISO: Operating solver in PISO mode

Reading transportProperties

Reading field p

Reading field U

Reading/calculating face flux field phi


Starting time loop

Time = 0.0005

Courant Number mean: 0 max: 0
DILUPBiCGStab:  Solving for Ux, Initial residual = 1, Final residual = 0.0216481, No Iterations 5
DILUPBiCGStab:  Solving for Uy:  solution singularity
DILUPBiCGStab:  Solving for Uz:  solution singularity
linear solve U 651048
[OGL LOG][Proc: 0]global_index_init : 39 mu s
[OGL LOG][Proc: 0]global_index_init : 2 mu s
[OGL LOG][Proc: 0]global_index_init : 1 mu s
[OGL LOG][Proc: 0]global_index_init : 1 mu s
[OGL LOG][Proc: 0]init_host_sparsity_pattern : 19720345 mu s
[OGL LOG][Proc: 0]update_host_matrix_data : 44716 mu s
[OGL LOG][Proc: 0]convert_coo_to_csr : 2563 mu s
[OGL LOG][Proc: 0]gather_initGuess : 32751 mu s
[OGL LOG][Proc: 0]gather_RHS : 25877 mu s
[OGL LOG][Proc: 0]gather_global_matrix : 5 mu s
[OGL LOG][Proc: 0]init_precond : 53 mu s
[OGL LOG][Proc: 0]generate_solver : 16 mu s
[OGL LOG][Proc: 0]solve : 5336776 mu s
[OGL LOG][Proc: 0]retrieve_result_from_device : 25580 mu s
nonecudaGKOBiCGStab:  Solving for p, Initial residual = 1, Final residual = 9.10863e-07, No Iterations 1799
linear solve p 27295628
time step continuity errors : sum local = 0.000132929, global = 3.6253e-19, cumulative = 3.6253e-19
[OGL LOG][Proc: 0]global_index_init : 112 mu s
[OGL LOG][Proc: 0]global_index_init : 2 mu s
[OGL LOG][Proc: 0]global_index_init : 2 mu s
[OGL LOG][Proc: 0]global_index_init : 1 mu s
[OGL LOG][Proc: 0]update_host_matrix_data : 34403 mu s
[OGL LOG][Proc: 0]gather_initGuess : 6 mu s
[OGL LOG][Proc: 0]gather_RHS : 28962 mu s
[OGL LOG][Proc: 0]gather_global_matrix : 0 mu s
read from registry
[OGL LOG][Proc: 0]init_precond : 21 mu s
[OGL LOG][Proc: 0]generate_solver : 1 mu s
[OGL LOG][Proc: 0]solve : 4419110 mu s
[OGL LOG][Proc: 0]retrieve_result_from_device : 24494 mu s
nonecudaGKOBiCGStab:  Solving for p, Initial residual = 0.895972, Final residual = 8.71654e-07, No Iterations 1598
linear solve p 4521397
time step continuity errors : sum local = 2.6755e-08, global = 3.63959e-22, cumulative = 3.62894e-19
ExecutionTime = 36.31 s  ClockTime = 36 s

Time = 0.001

Courant Number mean: 0.0392482 max: 0.865942
DILUPBiCGStab:  Solving for Ux, Initial residual = 0.119439, Final residual = 0.0142264, No Iterations 5
DILUPBiCGStab:  Solving for Uy, Initial residual = 0.510793, Final residual = 0.0562214, No Iterations 5
DILUPBiCGStab:  Solving for Uz, Initial residual = 0.894332, Final residual = 0.134868, No Iterations 5
linear solve U 1305039
[OGL LOG][Proc: 0]global_index_init : 69 mu s
[OGL LOG][Proc: 0]global_index_init : 2 mu s
[OGL LOG][Proc: 0]global_index_init : 2 mu s
[OGL LOG][Proc: 0]global_index_init : 1 mu s
[OGL LOG][Proc: 0]update_host_matrix_data : 34465 mu s
[OGL LOG][Proc: 0]gather_initGuess : 1 mu s
[OGL LOG][Proc: 0]gather_RHS : 29159 mu s
[OGL LOG][Proc: 0]gather_global_matrix : 0 mu s
read from registry
[OGL LOG][Proc: 0]init_precond : 9 mu s
[OGL LOG][Proc: 0]generate_solver : 1 mu s
[OGL LOG][Proc: 0]solve : 4106040 mu s
[OGL LOG][Proc: 0]retrieve_result_from_device : 25158 mu s
nonecudaGKOBiCGStab:  Solving for p, Initial residual = 0.966861, Final residual = 1.10099e-07, No Iterations 1481
linear solve p 4208980
time step continuity errors : sum local = 1.07797e-06, global = 1.38305e-20, cumulative = 3.76725e-19
[OGL LOG][Proc: 0]global_index_init : 81 mu s
[OGL LOG][Proc: 0]global_index_init : 2 mu s
[OGL LOG][Proc: 0]global_index_init : 2 mu s
[OGL LOG][Proc: 0]global_index_init : 1 mu s
[OGL LOG][Proc: 0]update_host_matrix_data : 34537 mu s
[OGL LOG][Proc: 0]gather_initGuess : 1 mu s
[OGL LOG][Proc: 0]gather_RHS : 29110 mu s
[OGL LOG][Proc: 0]gather_global_matrix : 0 mu s
read from registry
[OGL LOG][Proc: 0]init_precond : 12 mu s
[OGL LOG][Proc: 0]generate_solver : 1 mu s
[OGL LOG][Proc: 0]solve : 4487906 mu s
[OGL LOG][Proc: 0]retrieve_result_from_device : 24771 mu s
nonecudaGKOBiCGStab:  Solving for p, Initial residual = 0.905284, Final residual = 1.7553e-07, No Iterations 1623
linear solve p 4591376
time step continuity errors : sum local = 1.66407e-08, global = -1.38263e-21, cumulative = 3.75342e-19
ExecutionTime = 47.27 s  ClockTime = 47 s

Time = 0.0015

Courant Number mean: 0.0617754 max: 1.02195
DILUPBiCGStab:  Solving for Ux, Initial residual = 0.0720035, Final residual = 0.00605305, No Iterations 5
DILUPBiCGStab:  Solving for Uy, Initial residual = 0.376366, Final residual = 0.0242035, No Iterations 5
DILUPBiCGStab:  Solving for Uz, Initial residual = 0.862328, Final residual = 0.0717565, No Iterations 5
linear solve U 1304619
[OGL LOG][Proc: 0]global_index_init : 34 mu s
[OGL LOG][Proc: 0]global_index_init : 2 mu s
[OGL LOG][Proc: 0]global_index_init : 3 mu s
[OGL LOG][Proc: 0]global_index_init : 1 mu s
[OGL LOG][Proc: 0]update_host_matrix_data : 35049 mu s
[OGL LOG][Proc: 0]gather_initGuess : 1 mu s
[OGL LOG][Proc: 0]gather_RHS : 29020 mu s
[OGL LOG][Proc: 0]gather_global_matrix : 0 mu s
read from registry
[OGL LOG][Proc: 0]init_precond : 11 mu s
[OGL LOG][Proc: 0]generate_solver : 1 mu s
[OGL LOG][Proc: 0]solve : 3991450 mu s
[OGL LOG][Proc: 0]retrieve_result_from_device : 25448 mu s
nonecudaGKOBiCGStab:  Solving for p, Initial residual = 0.968784, Final residual = 2.05674e-07, No Iterations 1440
linear solve p 4095630
time step continuity errors : sum local = 6.37835e-10, global = -1.24162e-21, cumulative = 3.741e-19
[OGL LOG][Proc: 0]global_index_init : 82 mu s
[OGL LOG][Proc: 0]global_index_init : 1 mu s
[OGL LOG][Proc: 0]global_index_init : 2 mu s
[OGL LOG][Proc: 0]global_index_init : 1 mu s
[OGL LOG][Proc: 0]update_host_matrix_data : 34224 mu s
[OGL LOG][Proc: 0]gather_initGuess : 1 mu s
[OGL LOG][Proc: 0]gather_RHS : 29147 mu s
[OGL LOG][Proc: 0]gather_global_matrix : 0 mu s
read from registry
[OGL LOG][Proc: 0]init_precond : 9 mu s
[OGL LOG][Proc: 0]generate_solver : 1 mu s
[OGL LOG][Proc: 0]solve : 5124883 mu s
[OGL LOG][Proc: 0]retrieve_result_from_device : 23964 mu s
nonecudaGKOBiCGStab:  Solving for p, Initial residual = 0.912913, Final residual = 5.39245e-07, No Iterations 1853
linear solve p 5226393
time step continuity errors : sum local = 4.55857e-07, global = -5.29396e-21, cumulative = 3.68806e-19
ExecutionTime = 58.75 s  ClockTime = 59 s

End

Finalising parallel run
================================================================================
hash: 1f077d6f24c2308ef87c37d8e9ef8f69
/*---------------------------------------------------------------------------*\
| =========                 |                                                 |
| \\      /  F ield         | OpenFOAM: The Open Source CFD Toolbox           |
|  \\    /   O peration     | Version:  2112                                  |
|   \\  /    A nd           | Website:  www.openfoam.com                      |
|    \\/     M anipulation  |                                                 |
\*---------------------------------------------------------------------------*/
Build  : d44c8318f0-20220111 OPENFOAM=2112 version=v2112
Arch   : "LSB;label=32;scalar=64"
Exec   : icoFoam -parallel
Date   : Jan 30 2022
Time   : 10:17:39
Host   : hkn0719.localdomain
PID    : 1009750
I/O    : uncollated
Case   : /hkfs/home/project/hk-project-test-fine/eq4036/data/code/ogl_labbook/lidDrivenCavity/solver/Variation_mesh/200/Variation_matrix_solver/CG_NoPrecond_CUDA/Variation_mpiRank/8/base
nProcs : 8
Hosts  :
(
    (hkn0719.localdomain 8)
)
Pstream initialized with:
    floatTransfer      : 0
    nProcsSimpleSum    : 0
    commsType          : nonBlocking
    polling iterations : 0
trapFpe: Floating point exception trapping enabled (FOAM_SIGFPE).
fileModificationChecking : Monitoring run-time modified files using timeStampMaster (fileModificationSkew 5, maxFileModificationPolls 20)
allowSystemOperations : Allowing user-supplied system call operations

// * * * * * * * * * * * * * * * * * * * * * * * * * * * * * * * * * * * * * //
Create time

Create mesh for time = 0


PISO: Operating solver in PISO mode

Reading transportProperties

Reading field p

Reading field U

Reading/calculating face flux field phi


Starting time loop

Time = 0.0005

Courant Number mean: 0 max: 0
DILUPBiCGStab:  Solving for Ux, Initial residual = 1, Final residual = 0.0216481, No Iterations 5
DILUPBiCGStab:  Solving for Uy:  solution singularity
DILUPBiCGStab:  Solving for Uz:  solution singularity
linear solve U 653371
[OGL LOG][Proc: 0]global_index_init : 29 mu s
[OGL LOG][Proc: 0]global_index_init : 1 mu s
[OGL LOG][Proc: 0]global_index_init : 1 mu s
[OGL LOG][Proc: 0]global_index_init : 1 mu s
[OGL LOG][Proc: 0]init_host_sparsity_pattern : 19745028 mu s
[OGL LOG][Proc: 0]update_host_matrix_data : 47119 mu s
[OGL LOG][Proc: 0]convert_coo_to_csr : 2602 mu s
[OGL LOG][Proc: 0]gather_initGuess : 32937 mu s
[OGL LOG][Proc: 0]gather_RHS : 26232 mu s
[OGL LOG][Proc: 0]gather_global_matrix : 0 mu s
[OGL LOG][Proc: 0]init_precond : 51 mu s
[OGL LOG][Proc: 0]generate_solver : 25 mu s
[OGL LOG][Proc: 0]solve : 2786697 mu s
[OGL LOG][Proc: 0]retrieve_result_from_device : 24524 mu s
nonecudaGKOCG:  Solving for p, Initial residual = 1, Final residual = 9.90089e-07, No Iterations 1749
linear solve p 24769988
time step continuity errors : sum local = 1.87366e-10, global = -6.54489e-21, cumulative = -6.54489e-21
[OGL LOG][Proc: 0]global_index_init : 129 mu s
[OGL LOG][Proc: 0]global_index_init : 3 mu s
[OGL LOG][Proc: 0]global_index_init : 3 mu s
[OGL LOG][Proc: 0]global_index_init : 2 mu s
[OGL LOG][Proc: 0]update_host_matrix_data : 34430 mu s
[OGL LOG][Proc: 0]gather_initGuess : 6 mu s
[OGL LOG][Proc: 0]gather_RHS : 28907 mu s
[OGL LOG][Proc: 0]gather_global_matrix : 0 mu s
read from registry
[OGL LOG][Proc: 0]init_precond : 19 mu s
[OGL LOG][Proc: 0]generate_solver : 1 mu s
[OGL LOG][Proc: 0]solve : 2682317 mu s
[OGL LOG][Proc: 0]retrieve_result_from_device : 24737 mu s
nonecudaGKOCG:  Solving for p, Initial residual = 0.81518, Final residual = 2.09459e-07, No Iterations 1795
linear solve p 2784511
time step continuity errors : sum local = 4.81474e-11, global = -1.91335e-21, cumulative = -8.45824e-21
ExecutionTime = 32.07 s  ClockTime = 32 s

Time = 0.001

Courant Number mean: 0.0392461 max: 0.865942
DILUPBiCGStab:  Solving for Ux, Initial residual = 0.117616, Final residual = 0.0131468, No Iterations 5
DILUPBiCGStab:  Solving for Uy, Initial residual = 0.506037, Final residual = 0.0494692, No Iterations 5
DILUPBiCGStab:  Solving for Uz, Initial residual = 0.96068, Final residual = 0.101188, No Iterations 5
linear solve U 1298522
[OGL LOG][Proc: 0]global_index_init : 33 mu s
[OGL LOG][Proc: 0]global_index_init : 1 mu s
[OGL LOG][Proc: 0]global_index_init : 2 mu s
[OGL LOG][Proc: 0]global_index_init : 1 mu s
[OGL LOG][Proc: 0]update_host_matrix_data : 35153 mu s
[OGL LOG][Proc: 0]gather_initGuess : 1 mu s
[OGL LOG][Proc: 0]gather_RHS : 28932 mu s
[OGL LOG][Proc: 0]gather_global_matrix : 0 mu s
read from registry
[OGL LOG][Proc: 0]init_precond : 9 mu s
[OGL LOG][Proc: 0]generate_solver : 1 mu s
[OGL LOG][Proc: 0]solve : 2661643 mu s
[OGL LOG][Proc: 0]retrieve_result_from_device : 24422 mu s
nonecudaGKOCG:  Solving for p, Initial residual = 0.897316, Final residual = 2.23821e-07, No Iterations 1776
linear solve p 2764985
time step continuity errors : sum local = 1.14146e-10, global = 6.35252e-22, cumulative = -7.82299e-21
[OGL LOG][Proc: 0]global_index_init : 74 mu s
[OGL LOG][Proc: 0]global_index_init : 1 mu s
[OGL LOG][Proc: 0]global_index_init : 2 mu s
[OGL LOG][Proc: 0]global_index_init : 1 mu s
[OGL LOG][Proc: 0]update_host_matrix_data : 34464 mu s
[OGL LOG][Proc: 0]gather_initGuess : 1 mu s
[OGL LOG][Proc: 0]gather_RHS : 28985 mu s
[OGL LOG][Proc: 0]gather_global_matrix : 0 mu s
read from registry
[OGL LOG][Proc: 0]init_precond : 9 mu s
[OGL LOG][Proc: 0]generate_solver : 1 mu s
[OGL LOG][Proc: 0]solve : 2653906 mu s
[OGL LOG][Proc: 0]retrieve_result_from_device : 25240 mu s
nonecudaGKOCG:  Solving for p, Initial residual = 0.846842, Final residual = 2.08966e-07, No Iterations 1776
linear solve p 2757220
time step continuity errors : sum local = 1.08693e-10, global = -7.80319e-22, cumulative = -8.60331e-21
ExecutionTime = 39.75 s  ClockTime = 40 s

Time = 0.0015

Courant Number mean: 0.0615403 max: 1.02143
DILUPBiCGStab:  Solving for Ux, Initial residual = 0.0685124, Final residual = 0.00554306, No Iterations 5
DILUPBiCGStab:  Solving for Uy, Initial residual = 0.357897, Final residual = 0.0211478, No Iterations 5
DILUPBiCGStab:  Solving for Uz, Initial residual = 0.820139, Final residual = 0.0702935, No Iterations 5
linear solve U 1299819
[OGL LOG][Proc: 0]global_index_init : 70 mu s
[OGL LOG][Proc: 0]global_index_init : 2 mu s
[OGL LOG][Proc: 0]global_index_init : 2 mu s
[OGL LOG][Proc: 0]global_index_init : 1 mu s
[OGL LOG][Proc: 0]update_host_matrix_data : 34295 mu s
[OGL LOG][Proc: 0]gather_initGuess : 1 mu s
[OGL LOG][Proc: 0]gather_RHS : 28898 mu s
[OGL LOG][Proc: 0]gather_global_matrix : 0 mu s
read from registry
[OGL LOG][Proc: 0]init_precond : 14 mu s
[OGL LOG][Proc: 0]generate_solver : 2 mu s
[OGL LOG][Proc: 0]solve : 2661358 mu s
[OGL LOG][Proc: 0]retrieve_result_from_device : 25428 mu s
nonecudaGKOCG:  Solving for p, Initial residual = 0.937568, Final residual = 1.92201e-07, No Iterations 1776
linear solve p 2764099
time step continuity errors : sum local = 1.27516e-10, global = -4.20379e-21, cumulative = -1.28071e-20
[OGL LOG][Proc: 0]global_index_init : 16 mu s
[OGL LOG][Proc: 0]global_index_init : 3 mu s
[OGL LOG][Proc: 0]global_index_init : 1 mu s
[OGL LOG][Proc: 0]global_index_init : 1 mu s
[OGL LOG][Proc: 0]update_host_matrix_data : 34550 mu s
[OGL LOG][Proc: 0]gather_initGuess : 1 mu s
[OGL LOG][Proc: 0]gather_RHS : 28907 mu s
[OGL LOG][Proc: 0]gather_global_matrix : 0 mu s
read from registry
[OGL LOG][Proc: 0]init_precond : 9 mu s
[OGL LOG][Proc: 0]generate_solver : 1 mu s
[OGL LOG][Proc: 0]solve : 2653874 mu s
[OGL LOG][Proc: 0]retrieve_result_from_device : 24705 mu s
nonecudaGKOCG:  Solving for p, Initial residual = 0.905008, Final residual = 1.85504e-07, No Iterations 1776
linear solve p 2756058
time step continuity errors : sum local = 1.22095e-10, global = 1.93048e-21, cumulative = -1.08766e-20
ExecutionTime = 47.43 s  ClockTime = 48 s

End

Finalising parallel run
================================================================================
hash: 8638ed551267bd057427b5bb6b3eae3e
/*---------------------------------------------------------------------------*\
| =========                 |                                                 |
| \\      /  F ield         | OpenFOAM: The Open Source CFD Toolbox           |
|  \\    /   O peration     | Version:  2112                                  |
|   \\  /    A nd           | Website:  www.openfoam.com                      |
|    \\/     M anipulation  |                                                 |
\*---------------------------------------------------------------------------*/
Build  : d44c8318f0-20220111 OPENFOAM=2112 version=v2112
Arch   : "LSB;label=32;scalar=64"
Exec   : icoFoam -parallel
Date   : Jan 30 2022
Time   : 10:18:28
Host   : hkn0719.localdomain
PID    : 1010015
I/O    : uncollated
Case   : /hkfs/home/project/hk-project-test-fine/eq4036/data/code/ogl_labbook/lidDrivenCavity/solver/Variation_mesh/200/Variation_matrix_solver/BiCGStab_ISAI_CUDA/Variation_mpiRank/8/base
nProcs : 8
Hosts  :
(
    (hkn0719.localdomain 8)
)
Pstream initialized with:
    floatTransfer      : 0
    nProcsSimpleSum    : 0
    commsType          : nonBlocking
    polling iterations : 0
trapFpe: Floating point exception trapping enabled (FOAM_SIGFPE).
fileModificationChecking : Monitoring run-time modified files using timeStampMaster (fileModificationSkew 5, maxFileModificationPolls 20)
allowSystemOperations : Allowing user-supplied system call operations

// * * * * * * * * * * * * * * * * * * * * * * * * * * * * * * * * * * * * * //
Create time

Create mesh for time = 0


PISO: Operating solver in PISO mode

Reading transportProperties

Reading field p

Reading field U

Reading/calculating face flux field phi


Starting time loop

Time = 0.0005

Courant Number mean: 0 max: 0
DILUPBiCGStab:  Solving for Ux, Initial residual = 1, Final residual = 0.0216481, No Iterations 5
DILUPBiCGStab:  Solving for Uy:  solution singularity
DILUPBiCGStab:  Solving for Uz:  solution singularity
linear solve U 657818
[OGL LOG][Proc: 0]global_index_init : 31 mu s
[OGL LOG][Proc: 0]global_index_init : 1 mu s
[OGL LOG][Proc: 0]global_index_init : 1 mu s
[OGL LOG][Proc: 0]global_index_init : 1 mu s
[OGL LOG][Proc: 0]init_host_sparsity_pattern : 19756046 mu s
[OGL LOG][Proc: 0]update_host_matrix_data : 45119 mu s
[OGL LOG][Proc: 0]convert_coo_to_csr : 2557 mu s
[OGL LOG][Proc: 0]gather_initGuess : 34497 mu s
[OGL LOG][Proc: 0]gather_RHS : 28755 mu s
[OGL LOG][Proc: 0]gather_global_matrix : 5 mu s
[OGL LOG][Proc: 0]init_precond : 509162 mu s
[OGL LOG][Proc: 0]generate_solver : 8 mu s
[OGL LOG][Proc: 0]solve : 5888464 mu s
[OGL LOG][Proc: 0]retrieve_result_from_device : 24813 mu s
ISAIcudaGKOBiCGStab:  Solving for p, Initial residual = 1, Final residual = 5.98115e-07, No Iterations 1381
linear solve p 28378948
time step continuity errors : sum local = 1.23657e-09, global = -7.31465e-21, cumulative = -7.31465e-21
[OGL LOG][Proc: 0]global_index_init : 88 mu s
[OGL LOG][Proc: 0]global_index_init : 3 mu s
[OGL LOG][Proc: 0]global_index_init : 3 mu s
[OGL LOG][Proc: 0]global_index_init : 2 mu s
[OGL LOG][Proc: 0]update_host_matrix_data : 34233 mu s
[OGL LOG][Proc: 0]gather_initGuess : 9 mu s
[OGL LOG][Proc: 0]gather_RHS : 29036 mu s
[OGL LOG][Proc: 0]gather_global_matrix : 0 mu s
read from registry
[OGL LOG][Proc: 0]init_precond : 21 mu s
[OGL LOG][Proc: 0]generate_solver : 1 mu s
[OGL LOG][Proc: 0]solve : 4682969 mu s
[OGL LOG][Proc: 0]retrieve_result_from_device : 23958 mu s
ISAIcudaGKOBiCGStab:  Solving for p, Initial residual = 0.81518, Final residual = 4.10641e-07, No Iterations 1155
linear solve p 4785276
time step continuity errors : sum local = 9.55187e-11, global = -5.83369e-23, cumulative = -7.37299e-21
ExecutionTime = 37.69 s  ClockTime = 39 s

Time = 0.001

Courant Number mean: 0.0392461 max: 0.865942
DILUPBiCGStab:  Solving for Ux, Initial residual = 0.117616, Final residual = 0.0131468, No Iterations 5
DILUPBiCGStab:  Solving for Uy, Initial residual = 0.506037, Final residual = 0.0494692, No Iterations 5
DILUPBiCGStab:  Solving for Uz, Initial residual = 0.960679, Final residual = 0.101187, No Iterations 5
linear solve U 1305436
[OGL LOG][Proc: 0]global_index_init : 23 mu s
[OGL LOG][Proc: 0]global_index_init : 1 mu s
[OGL LOG][Proc: 0]global_index_init : 2 mu s
[OGL LOG][Proc: 0]global_index_init : 1 mu s
[OGL LOG][Proc: 0]update_host_matrix_data : 34633 mu s
[OGL LOG][Proc: 0]gather_initGuess : 1 mu s
[OGL LOG][Proc: 0]gather_RHS : 29119 mu s
[OGL LOG][Proc: 0]gather_global_matrix : 0 mu s
read from registry
[OGL LOG][Proc: 0]init_precond : 11 mu s
[OGL LOG][Proc: 0]generate_solver : 1 mu s
[OGL LOG][Proc: 0]solve : 8681668 mu s
[OGL LOG][Proc: 0]retrieve_result_from_device : 25144 mu s
ISAIcudaGKOBiCGStab:  Solving for p, Initial residual = 0.897316, Final residual = 4.88813e-07, No Iterations 2139
linear solve p 8784806
time step continuity errors : sum local = 2.49351e-10, global = -1.08488e-21, cumulative = -8.45787e-21
[OGL LOG][Proc: 0]global_index_init : 265 mu s
[OGL LOG][Proc: 0]global_index_init : 2 mu s
[OGL LOG][Proc: 0]global_index_init : 2 mu s
[OGL LOG][Proc: 0]global_index_init : 1 mu s
[OGL LOG][Proc: 0]update_host_matrix_data : 35074 mu s
[OGL LOG][Proc: 0]gather_initGuess : 1 mu s
[OGL LOG][Proc: 0]gather_RHS : 29082 mu s
[OGL LOG][Proc: 0]gather_global_matrix : 0 mu s
read from registry
[OGL LOG][Proc: 0]init_precond : 9 mu s
[OGL LOG][Proc: 0]generate_solver : 1 mu s
[OGL LOG][Proc: 0]solve : 5167709 mu s
[OGL LOG][Proc: 0]retrieve_result_from_device : 24864 mu s
ISAIcudaGKOBiCGStab:  Solving for p, Initial residual = 0.846842, Final residual = 8.071e-07, No Iterations 1275
linear solve p 5271105
time step continuity errors : sum local = 4.20174e-10, global = -5.2953e-22, cumulative = -8.9874e-21
ExecutionTime = 53.9 s  ClockTime = 55 s

Time = 0.0015

Courant Number mean: 0.0615403 max: 1.02143
DILUPBiCGStab:  Solving for Ux, Initial residual = 0.0685124, Final residual = 0.00554306, No Iterations 5
DILUPBiCGStab:  Solving for Uy, Initial residual = 0.357897, Final residual = 0.0211477, No Iterations 5
DILUPBiCGStab:  Solving for Uz, Initial residual = 0.820139, Final residual = 0.0702934, No Iterations 5
linear solve U 1301627
[OGL LOG][Proc: 0]global_index_init : 10 mu s
[OGL LOG][Proc: 0]global_index_init : 1 mu s
[OGL LOG][Proc: 0]global_index_init : 2 mu s
[OGL LOG][Proc: 0]global_index_init : 1 mu s
[OGL LOG][Proc: 0]update_host_matrix_data : 34768 mu s
[OGL LOG][Proc: 0]gather_initGuess : 1 mu s
[OGL LOG][Proc: 0]gather_RHS : 29053 mu s
[OGL LOG][Proc: 0]gather_global_matrix : 0 mu s
read from registry
[OGL LOG][Proc: 0]init_precond : 10 mu s
[OGL LOG][Proc: 0]generate_solver : 1 mu s
[OGL LOG][Proc: 0]solve : 2494973 mu s
[OGL LOG][Proc: 0]retrieve_result_from_device : 25079 mu s
ISAIcudaGKOBiCGStab:  Solving for p, Initial residual = 0.937568, Final residual = 9.39151e-07, No Iterations 612
linear solve p 2599659
time step continuity errors : sum local = 1.23597e-09, global = 2.33472e-21, cumulative = -6.65269e-21
[OGL LOG][Proc: 0]global_index_init : 9 mu s
[OGL LOG][Proc: 0]global_index_init : 1 mu s
[OGL LOG][Proc: 0]global_index_init : 2 mu s
[OGL LOG][Proc: 0]global_index_init : 1 mu s
[OGL LOG][Proc: 0]update_host_matrix_data : 33881 mu s
[OGL LOG][Proc: 0]gather_initGuess : 1 mu s
[OGL LOG][Proc: 0]gather_RHS : 29489 mu s
[OGL LOG][Proc: 0]gather_global_matrix : 0 mu s
read from registry
[OGL LOG][Proc: 0]init_precond : 9 mu s
[OGL LOG][Proc: 0]generate_solver : 1 mu s
[OGL LOG][Proc: 0]solve : 1514921 mu s
[OGL LOG][Proc: 0]retrieve_result_from_device : 24402 mu s
ISAIcudaGKOBiCGStab:  Solving for p, Initial residual = 0.90501, Final residual = 5.63894e-07, No Iterations 372
linear solve p 1616649
time step continuity errors : sum local = 6.01985e-10, global = 3.61471e-23, cumulative = -6.61654e-21
ExecutionTime = 60.28 s  ClockTime = 61 s

End

Finalising parallel run
================================================================================
hash: 2644e5749d9bfa729d882083e80bcabf
/*---------------------------------------------------------------------------*\
| =========                 |                                                 |
| \\      /  F ield         | OpenFOAM: The Open Source CFD Toolbox           |
|  \\    /   O peration     | Version:  2112                                  |
|   \\  /    A nd           | Website:  www.openfoam.com                      |
|    \\/     M anipulation  |                                                 |
\*---------------------------------------------------------------------------*/
Build  : d44c8318f0-20220111 OPENFOAM=2112 version=v2112
Arch   : "LSB;label=32;scalar=64"
Exec   : icoFoam -parallel
Date   : Jan 30 2022
Time   : 10:12:51
Host   : hkn0426.localdomain
PID    : 3637839
I/O    : uncollated
Case   : /hkfs/home/project/hk-project-test-fine/eq4036/data/code/ogl_labbook/lidDrivenCavity/solver/Variation_mesh/100/Variation_matrix_solver/BiCGStab_Multigrid_CUDA/Variation_mpiRank/8/base
nProcs : 8
Hosts  :
(
    (hkn0426.localdomain 8)
)
Pstream initialized with:
    floatTransfer      : 0
    nProcsSimpleSum    : 0
    commsType          : nonBlocking
    polling iterations : 0
trapFpe: Floating point exception trapping enabled (FOAM_SIGFPE).
fileModificationChecking : Monitoring run-time modified files using timeStampMaster (fileModificationSkew 5, maxFileModificationPolls 20)
allowSystemOperations : Allowing user-supplied system call operations

// * * * * * * * * * * * * * * * * * * * * * * * * * * * * * * * * * * * * * //
Create time

Create mesh for time = 0


PISO: Operating solver in PISO mode

Reading transportProperties

Reading field p

Reading field U

Reading/calculating face flux field phi


Starting time loop

Time = 0.001

Courant Number mean: 0 max: 0
DILUPBiCGStab:  Solving for Ux, Initial residual = 1, Final residual = 0.00976191, No Iterations 5
DILUPBiCGStab:  Solving for Uy:  solution singularity
DILUPBiCGStab:  Solving for Uz:  solution singularity
linear solve U 67315
[OGL LOG][Proc: 0]global_index_init : 54 mu s
[OGL LOG][Proc: 0]global_index_init : 3 mu s
[OGL LOG][Proc: 0]global_index_init : 1 mu s
[OGL LOG][Proc: 0]global_index_init : 2 mu s
[OGL LOG][Proc: 0]init_host_sparsity_pattern : 591529 mu s
[OGL LOG][Proc: 0]update_host_matrix_data : 4930 mu s
[OGL LOG][Proc: 0]convert_coo_to_csr : 956 mu s
[OGL LOG][Proc: 0]gather_initGuess : 4437 mu s
[OGL LOG][Proc: 0]gather_RHS : 1891 mu s
[OGL LOG][Proc: 0]gather_global_matrix : 4 mu s
[OGL LOG][Proc: 0]init_precond : 160257 mu s
[OGL LOG][Proc: 0]generate_solver : 3 mu s
[OGL LOG][Proc: 0]solve : 275271463 mu s
[OGL LOG][Proc: 0]retrieve_result_from_device : 3047 mu s
MultigridcudaGKOBiCGStab:  Solving for p, Initial residual = 1, Final residual = 1.52062e+06, No Iterations 10000
linear solve p 277866337
time step continuity errors : sum local = 892.203, global = -8.35598e-12, cumulative = -8.35598e-12
[OGL LOG][Proc: 0]global_index_init : 40 mu s
[OGL LOG][Proc: 0]global_index_init : 1 mu s
[OGL LOG][Proc: 0]global_index_init : 2 mu s
[OGL LOG][Proc: 0]global_index_init : 1 mu s
[OGL LOG][Proc: 0]update_host_matrix_data : 4156 mu s
[OGL LOG][Proc: 0]gather_initGuess : 7 mu s
[OGL LOG][Proc: 0]gather_RHS : 3954 mu s
[OGL LOG][Proc: 0]gather_global_matrix : 0 mu s
read from registry
[OGL LOG][Proc: 0]init_precond : 18 mu s
[OGL LOG][Proc: 0]generate_solver : 1 mu s
[OGL LOG][Proc: 0]solve : 273120007 mu s
[OGL LOG][Proc: 0]retrieve_result_from_device : 2333 mu s
MultigridcudaGKOBiCGStab:  Solving for p, Initial residual = 0.957101, Final residual = 6.53291e+11, No Iterations 10000
linear solve p 273133302
time step continuity errors : sum local = 2.3486e+15, global = 31.4375, cumulative = 31.4375
ExecutionTime = 547.82 s  ClockTime = 551 s

Time = 0.002

Courant Number mean: 1.6986e+17 max: 5.82809e+20
DILUPBiCGStab:  Solving for Ux, Initial residual = 0.999862, Final residual = 116.503, No Iterations 5
DILUPBiCGStab:  Solving for Uy, Initial residual = 0.999867, Final residual = 1.13957, No Iterations 5
DILUPBiCGStab:  Solving for Uz, Initial residual = 0.999864, Final residual = 157.214, No Iterations 5
linear solve U 126268
[OGL LOG][Proc: 0]global_index_init : 38 mu s
[OGL LOG][Proc: 0]global_index_init : 1 mu s
[OGL LOG][Proc: 0]global_index_init : 2 mu s
[OGL LOG][Proc: 0]global_index_init : 1 mu s
[OGL LOG][Proc: 0]update_host_matrix_data : 4132 mu s
[OGL LOG][Proc: 0]gather_initGuess : 1 mu s
[OGL LOG][Proc: 0]gather_RHS : 3394 mu s
[OGL LOG][Proc: 0]gather_global_matrix : 0 mu s
read from registry
[OGL LOG][Proc: 0]init_precond : 8 mu s
[OGL LOG][Proc: 0]generate_solver : 1 mu s
[OGL LOG][Proc: 0]solve : 273317484 mu s
[OGL LOG][Proc: 0]retrieve_result_from_device : 2238 mu s
MultigridcudaGKOBiCGStab:  Solving for p, Initial residual = 1, Final residual = 79210, No Iterations 10000
linear solve p 273329762
time step continuity errors : sum local = 1.38535e+24, global = -1.43313e+07, cumulative = -1.43313e+07
[OGL LOG][Proc: 0]global_index_init : 26 mu s
[OGL LOG][Proc: 0]global_index_init : 2 mu s
[OGL LOG][Proc: 0]global_index_init : 2 mu s
[OGL LOG][Proc: 0]global_index_init : 1 mu s
[OGL LOG][Proc: 0]update_host_matrix_data : 4202 mu s
[OGL LOG][Proc: 0]gather_initGuess : 2 mu s
[OGL LOG][Proc: 0]gather_RHS : 2717 mu s
[OGL LOG][Proc: 0]gather_global_matrix : 0 mu s
read from registry
[OGL LOG][Proc: 0]init_precond : 7 mu s
[OGL LOG][Proc: 0]generate_solver : 0 mu s
[OGL LOG][Proc: 0]solve : 273207899 mu s
[OGL LOG][Proc: 0]retrieve_result_from_device : 2248 mu s
MultigridcudaGKOBiCGStab:  Solving for p, Initial residual = 0.999999, Final residual = 320121, No Iterations 10000
linear solve p 273219909
time step continuity errors : sum local = 2.24679e+30, global = -6.88229e+13, cumulative = -6.88229e+13
ExecutionTime = 1091.15 s  ClockTime = 1098 s

Time = 0.003

Courant Number mean: 2.35228e+30 max: 3.16865e+35
DILUPBiCGStab:  Solving for Ux, Initial residual = 0.999997, Final residual = 955.226, No Iterations 5
DILUPBiCGStab:  Solving for Uy, Initial residual = 0.999997, Final residual = 158631, No Iterations 5
DILUPBiCGStab:  Solving for Uz, Initial residual = 0.999997, Final residual = 110691, No Iterations 5
linear solve U 124251
[OGL LOG][Proc: 0]global_index_init : 43 mu s
[OGL LOG][Proc: 0]global_index_init : 1 mu s
[OGL LOG][Proc: 0]global_index_init : 2 mu s
[OGL LOG][Proc: 0]global_index_init : 1 mu s
[OGL LOG][Proc: 0]update_host_matrix_data : 4153 mu s
[OGL LOG][Proc: 0]gather_initGuess : 1 mu s
[OGL LOG][Proc: 0]gather_RHS : 3045 mu s
[OGL LOG][Proc: 0]gather_global_matrix : 0 mu s
read from registry
[OGL LOG][Proc: 0]init_precond : 7 mu s
[OGL LOG][Proc: 0]generate_solver : 1 mu s
[OGL LOG][Proc: 0]solve : 273269334 mu s
[OGL LOG][Proc: 0]retrieve_result_from_device : 2328 mu s
MultigridcudaGKOBiCGStab:  Solving for p, Initial residual = 1, Final residual = 157022, No Iterations 10000
linear solve p 273281497
time step continuity errors : sum local = 1.79889e+46, global = 5.52616e+30, cumulative = 5.52616e+30
[OGL LOG][Proc: 0]global_index_init : 36 mu s
[OGL LOG][Proc: 0]global_index_init : 1 mu s
[OGL LOG][Proc: 0]global_index_init : 2 mu s
[OGL LOG][Proc: 0]global_index_init : 1 mu s
[OGL LOG][Proc: 0]update_host_matrix_data : 4183 mu s
[OGL LOG][Proc: 0]gather_initGuess : 2 mu s
[OGL LOG][Proc: 0]gather_RHS : 2757 mu s
[OGL LOG][Proc: 0]gather_global_matrix : 0 mu s
read from registry
[OGL LOG][Proc: 0]init_precond : 7 mu s
[OGL LOG][Proc: 0]generate_solver : 0 mu s
[OGL LOG][Proc: 0]solve : 273137500 mu s
[OGL LOG][Proc: 0]retrieve_result_from_device : 2264 mu s
MultigridcudaGKOBiCGStab:  Solving for p, Initial residual = 0.999969, Final residual = 0.000311162, No Iterations 10000
linear solve p 273149357
time step continuity errors : sum local = 1.59029e+48, global = -2.41361e+33, cumulative = -2.40808e+33
ExecutionTime = 1634.34 s  ClockTime = 1645 s

End

Finalising parallel run
================================================================================
hash: c377582867d72715eb0f1c46abc72d77
/*---------------------------------------------------------------------------*\
| =========                 |                                                 |
| \\      /  F ield         | OpenFOAM: The Open Source CFD Toolbox           |
|  \\    /   O peration     | Version:  2112                                  |
|   \\  /    A nd           | Website:  www.openfoam.com                      |
|    \\/     M anipulation  |                                                 |
\*---------------------------------------------------------------------------*/
Build  : d44c8318f0-20220111 OPENFOAM=2112 version=v2112
Arch   : "LSB;label=32;scalar=64"
Exec   : icoFoam -parallel
Date   : Jan 30 2022
Time   : 10:40:17
Host   : hkn0426.localdomain
PID    : 3640226
I/O    : uncollated
Case   : /hkfs/home/project/hk-project-test-fine/eq4036/data/code/ogl_labbook/lidDrivenCavity/solver/Variation_mesh/100/Variation_matrix_solver/CG_Multigrid_CUDA/Variation_mpiRank/8/base
nProcs : 8
Hosts  :
(
    (hkn0426.localdomain 8)
)
Pstream initialized with:
    floatTransfer      : 0
    nProcsSimpleSum    : 0
    commsType          : nonBlocking
    polling iterations : 0
trapFpe: Floating point exception trapping enabled (FOAM_SIGFPE).
fileModificationChecking : Monitoring run-time modified files using timeStampMaster (fileModificationSkew 5, maxFileModificationPolls 20)
allowSystemOperations : Allowing user-supplied system call operations

// * * * * * * * * * * * * * * * * * * * * * * * * * * * * * * * * * * * * * //
Create time

Create mesh for time = 0


PISO: Operating solver in PISO mode

Reading transportProperties

Reading field p

Reading field U

Reading/calculating face flux field phi


Starting time loop

Time = 0.001

Courant Number mean: 0 max: 0
DILUPBiCGStab:  Solving for Ux, Initial residual = 1, Final residual = 0.00976191, No Iterations 5
DILUPBiCGStab:  Solving for Uy:  solution singularity
DILUPBiCGStab:  Solving for Uz:  solution singularity
linear solve U 69207
[OGL LOG][Proc: 0]global_index_init : 59 mu s
[OGL LOG][Proc: 0]global_index_init : 1 mu s
[OGL LOG][Proc: 0]global_index_init : 1 mu s
[OGL LOG][Proc: 0]global_index_init : 1 mu s
[OGL LOG][Proc: 0]init_host_sparsity_pattern : 593130 mu s
[OGL LOG][Proc: 0]update_host_matrix_data : 5258 mu s
[OGL LOG][Proc: 0]convert_coo_to_csr : 920 mu s
[OGL LOG][Proc: 0]gather_initGuess : 4533 mu s
[OGL LOG][Proc: 0]gather_RHS : 1818 mu s
[OGL LOG][Proc: 0]gather_global_matrix : 0 mu s
[OGL LOG][Proc: 0]init_precond : 160822 mu s
[OGL LOG][Proc: 0]generate_solver : 2 mu s
[OGL LOG][Proc: 0]solve : 1157741 mu s
[OGL LOG][Proc: 0]retrieve_result_from_device : 2835 mu s
MultigridcudaGKOCG:  Solving for p, Initial residual = 1, Final residual = 9.4081e-07, No Iterations 84
linear solve p 3770141
time step continuity errors : sum local = 5.58401e-10, global = 1.65353e-20, cumulative = 1.65353e-20
[OGL LOG][Proc: 0]global_index_init : 37 mu s
[OGL LOG][Proc: 0]global_index_init : 2 mu s
[OGL LOG][Proc: 0]global_index_init : 2 mu s
[OGL LOG][Proc: 0]global_index_init : 1 mu s
[OGL LOG][Proc: 0]update_host_matrix_data : 4541 mu s
[OGL LOG][Proc: 0]gather_initGuess : 6 mu s
[OGL LOG][Proc: 0]gather_RHS : 3933 mu s
[OGL LOG][Proc: 0]gather_global_matrix : 0 mu s
read from registry
[OGL LOG][Proc: 0]init_precond : 16 mu s
[OGL LOG][Proc: 0]generate_solver : 0 mu s
[OGL LOG][Proc: 0]solve : 1164254 mu s
[OGL LOG][Proc: 0]retrieve_result_from_device : 2134 mu s
MultigridcudaGKOCG:  Solving for p, Initial residual = 0.777378, Final residual = 5.44463e-07, No Iterations 85
linear solve p 1177024
time step continuity errors : sum local = 4.07051e-10, global = -5.42024e-21, cumulative = 1.11151e-20
ExecutionTime = 5.25 s  ClockTime = 6 s

Time = 0.002

Courant Number mean: 0.0555224 max: 0.807219
DILUPBiCGStab:  Solving for Ux, Initial residual = 0.137481, Final residual = 0.00480445, No Iterations 5
DILUPBiCGStab:  Solving for Uy, Initial residual = 0.431367, Final residual = 0.0127824, No Iterations 5
DILUPBiCGStab:  Solving for Uz, Initial residual = 0.973571, Final residual = 0.0274117, No Iterations 5
linear solve U 126320
[OGL LOG][Proc: 0]global_index_init : 12 mu s
[OGL LOG][Proc: 0]global_index_init : 3 mu s
[OGL LOG][Proc: 0]global_index_init : 3 mu s
[OGL LOG][Proc: 0]global_index_init : 2 mu s
[OGL LOG][Proc: 0]update_host_matrix_data : 3757 mu s
[OGL LOG][Proc: 0]gather_initGuess : 1 mu s
[OGL LOG][Proc: 0]gather_RHS : 2761 mu s
[OGL LOG][Proc: 0]gather_global_matrix : 0 mu s
read from registry
[OGL LOG][Proc: 0]init_precond : 8 mu s
[OGL LOG][Proc: 0]generate_solver : 1 mu s
[OGL LOG][Proc: 0]solve : 1126955 mu s
[OGL LOG][Proc: 0]retrieve_result_from_device : 1783 mu s
MultigridcudaGKOCG:  Solving for p, Initial residual = 0.808994, Final residual = 9.90846e-07, No Iterations 82
linear solve p 1137978
time step continuity errors : sum local = 1.06387e-09, global = 2.39618e-21, cumulative = 1.35113e-20
[OGL LOG][Proc: 0]global_index_init : 34 mu s
[OGL LOG][Proc: 0]global_index_init : 1 mu s
[OGL LOG][Proc: 0]global_index_init : 2 mu s
[OGL LOG][Proc: 0]global_index_init : 1 mu s
[OGL LOG][Proc: 0]update_host_matrix_data : 3679 mu s
[OGL LOG][Proc: 0]gather_initGuess : 1 mu s
[OGL LOG][Proc: 0]gather_RHS : 2673 mu s
[OGL LOG][Proc: 0]gather_global_matrix : 0 mu s
read from registry
[OGL LOG][Proc: 0]init_precond : 8 mu s
[OGL LOG][Proc: 0]generate_solver : 0 mu s
[OGL LOG][Proc: 0]solve : 1126094 mu s
[OGL LOG][Proc: 0]retrieve_result_from_device : 1597 mu s
MultigridcudaGKOCG:  Solving for p, Initial residual = 0.74964, Final residual = 8.45945e-07, No Iterations 82
linear solve p 1136060
time step continuity errors : sum local = 9.26662e-10, global = -1.92536e-20, cumulative = -5.74237e-21
ExecutionTime = 7.73 s  ClockTime = 8 s

Time = 0.003

Courant Number mean: 0.0846038 max: 0.943672
DILUPBiCGStab:  Solving for Ux, Initial residual = 0.0646797, Final residual = 0.00170436, No Iterations 5
DILUPBiCGStab:  Solving for Uy, Initial residual = 0.226339, Final residual = 0.00427102, No Iterations 5
DILUPBiCGStab:  Solving for Uz, Initial residual = 0.765696, Final residual = 0.0189347, No Iterations 5
linear solve U 123330
[OGL LOG][Proc: 0]global_index_init : 19 mu s
[OGL LOG][Proc: 0]global_index_init : 2 mu s
[OGL LOG][Proc: 0]global_index_init : 2 mu s
[OGL LOG][Proc: 0]global_index_init : 1 mu s
[OGL LOG][Proc: 0]update_host_matrix_data : 3700 mu s
[OGL LOG][Proc: 0]gather_initGuess : 1 mu s
[OGL LOG][Proc: 0]gather_RHS : 3493 mu s
[OGL LOG][Proc: 0]gather_global_matrix : 0 mu s
read from registry
[OGL LOG][Proc: 0]init_precond : 8 mu s
[OGL LOG][Proc: 0]generate_solver : 1 mu s
[OGL LOG][Proc: 0]solve : 922635 mu s
[OGL LOG][Proc: 0]retrieve_result_from_device : 1683 mu s
MultigridcudaGKOCG:  Solving for p, Initial residual = 0.837716, Final residual = 3.65064e-07, No Iterations 67
linear solve p 933468
time step continuity errors : sum local = 3.82329e-10, global = 3.5224e-22, cumulative = -5.39013e-21
[OGL LOG][Proc: 0]global_index_init : 15 mu s
[OGL LOG][Proc: 0]global_index_init : 1 mu s
[OGL LOG][Proc: 0]global_index_init : 2 mu s
[OGL LOG][Proc: 0]global_index_init : 1 mu s
[OGL LOG][Proc: 0]update_host_matrix_data : 4506 mu s
[OGL LOG][Proc: 0]gather_initGuess : 1 mu s
[OGL LOG][Proc: 0]gather_RHS : 2640 mu s
[OGL LOG][Proc: 0]gather_global_matrix : 0 mu s
read from registry
[OGL LOG][Proc: 0]init_precond : 7 mu s
[OGL LOG][Proc: 0]generate_solver : 0 mu s
[OGL LOG][Proc: 0]solve : 864474 mu s
[OGL LOG][Proc: 0]retrieve_result_from_device : 2085 mu s
MultigridcudaGKOCG:  Solving for p, Initial residual = 0.805107, Final residual = 5.10744e-07, No Iterations 63
linear solve p 875724
time step continuity errors : sum local = 5.11391e-10, global = 8.90155e-21, cumulative = 3.51142e-21
ExecutionTime = 9.75 s  ClockTime = 10 s

End

Finalising parallel run
================================================================================
hash: ca6352b7db1a9f979441e5123f03f6d7
/*---------------------------------------------------------------------------*\
[...]
DILUPBiCGStab:  Solving for Uy, Initial residual = 0.431367, Final residual = 0.0127824, No Iterations 5
DILUPBiCGStab:  Solving for Uz, Initial residual = 0.97357, Final residual = 0.0274117, No Iterations 5
linear solve U 122457
[OGL LOG][Proc: 0]global_index_init : 36 mu s
[OGL LOG][Proc: 0]global_index_init : 3 mu s
[OGL LOG][Proc: 0]global_index_init : 2 mu s
[OGL LOG][Proc: 0]global_index_init : 2 mu s
[OGL LOG][Proc: 0]update_host_matrix_data : 3413 mu s
[OGL LOG][Proc: 0]gather_initGuess : 1 mu s
[OGL LOG][Proc: 0]gather_RHS : 3299 mu s
[OGL LOG][Proc: 0]gather_global_matrix : 0 mu s
read from registry
[OGL LOG][Proc: 0]init_precond : 7 mu s
[OGL LOG][Proc: 0]generate_solver : 1 mu s
[OGL LOG][Proc: 0]solve : 229831 mu s
[OGL LOG][Proc: 0]retrieve_result_from_device : 1446 mu s
ISAIcudaGKOCG:  Solving for p, Initial residual = 0.808994, Final residual = 3.75751e-07, No Iterations 701
linear solve p 239907
time step continuity errors : sum local = 4.02819e-10, global = -6.98746e-21, cumulative = 4.87462e-21
[OGL LOG][Proc: 0]global_index_init : 30 mu s
[OGL LOG][Proc: 0]global_index_init : 2 mu s
[OGL LOG][Proc: 0]global_index_init : 1 mu s
[OGL LOG][Proc: 0]global_index_init : 1 mu s
[OGL LOG][Proc: 0]update_host_matrix_data : 3389 mu s
[OGL LOG][Proc: 0]gather_initGuess : 1 mu s
[OGL LOG][Proc: 0]gather_RHS : 2582 mu s
[OGL LOG][Proc: 0]gather_global_matrix : 0 mu s
read from registry
[OGL LOG][Proc: 0]init_precond : 7 mu s
[OGL LOG][Proc: 0]generate_solver : 1 mu s
[OGL LOG][Proc: 0]solve : 230864 mu s
[OGL LOG][Proc: 0]retrieve_result_from_device : 1437 mu s
ISAIcudaGKOCG:  Solving for p, Initial residual = 0.74964, Final residual = 3.56748e-07, No Iterations 701
linear solve p 240267
time step continuity errors : sum local = 3.9029e-10, global = 6.39446e-21, cumulative = 1.12691e-20
ExecutionTime = 4.13 s  ClockTime = 6 s

Time = 0.003

Courant Number mean: 0.0846038 max: 0.943672
DILUPBiCGStab:  Solving for Ux, Initial residual = 0.0646795, Final residual = 0.00170435, No Iterations 5
DILUPBiCGStab:  Solving for Uy, Initial residual = 0.226339, Final residual = 0.004271, No Iterations 5
DILUPBiCGStab:  Solving for Uz, Initial residual = 0.765697, Final residual = 0.0189348, No Iterations 5
linear solve U 122129
[OGL LOG][Proc: 0]global_index_init : 14 mu s
[OGL LOG][Proc: 0]global_index_init : 2 mu s
[OGL LOG][Proc: 0]global_index_init : 3 mu s
[OGL LOG][Proc: 0]global_index_init : 2 mu s
[OGL LOG][Proc: 0]update_host_matrix_data : 4306 mu s
[OGL LOG][Proc: 0]gather_initGuess : 3 mu s
[OGL LOG][Proc: 0]gather_RHS : 2519 mu s
[OGL LOG][Proc: 0]gather_global_matrix : 0 mu s
read from registry
[OGL LOG][Proc: 0]init_precond : 7 mu s
[OGL LOG][Proc: 0]generate_solver : 0 mu s
[OGL LOG][Proc: 0]solve : 220351 mu s
[OGL LOG][Proc: 0]retrieve_result_from_device : 1512 mu s
ISAIcudaGKOCG:  Solving for p, Initial residual = 0.837716, Final residual = 3.60896e-07, No Iterations 673
linear solve p 230587
time step continuity errors : sum local = 3.57216e-10, global = -4.96235e-21, cumulative = 6.30673e-21
[OGL LOG][Proc: 0]global_index_init : 66 mu s
[OGL LOG][Proc: 0]global_index_init : 2 mu s
[OGL LOG][Proc: 0]global_index_init : 4 mu s
[OGL LOG][Proc: 0]global_index_init : 2 mu s
[OGL LOG][Proc: 0]update_host_matrix_data : 3355 mu s
[OGL LOG][Proc: 0]gather_initGuess : 1 mu s
[OGL LOG][Proc: 0]gather_RHS : 3999 mu s
[OGL LOG][Proc: 0]gather_global_matrix : 0 mu s
read from registry
[OGL LOG][Proc: 0]init_precond : 7 mu s
[OGL LOG][Proc: 0]generate_solver : 1 mu s
[OGL LOG][Proc: 0]solve : 222521 mu s
[OGL LOG][Proc: 0]retrieve_result_from_device : 1786 mu s
ISAIcudaGKOCG:  Solving for p, Initial residual = 0.805107, Final residual = 3.51053e-07, No Iterations 677
linear solve p 233853
time step continuity errors : sum local = 3.39038e-10, global = 2.66134e-22, cumulative = 6.57286e-21
ExecutionTime = 4.8 s  ClockTime = 7 s

End

Finalising parallel run
================================================================================
hash: ceeba0b953fd5834add9b778890700a4
/*---------------------------------------------------------------------------*\
| =========                 |                                                 |
| \\      /  F ield         | OpenFOAM: The Open Source CFD Toolbox           |
|  \\    /   O peration     | Version:  2112                                  |
|   \\  /    A nd           | Website:  www.openfoam.com                      |
|    \\/     M anipulation  |                                                 |
\*---------------------------------------------------------------------------*/
Build  : d44c8318f0-20220111 OPENFOAM=2112 version=v2112
Arch   : "LSB;label=32;scalar=64"
Exec   : icoFoam -parallel
Date   : Jan 30 2022
Time   : 21:01:45
Host   : hkn0502.localdomain
PID    : 612715
I/O    : uncollated
Case   : /hkfs/home/project/hk-project-test-fine/eq4036/data/code/ogl_labbook/lidDrivenCavity/solver/Variation_mesh/100/Variation_matrix_solver/CG_NoPrecond_CUDA/Variation_mpiRank/8/base
nProcs : 8
Hosts  :
(
    (hkn0502.localdomain 8)
)
Pstream initialized with:
    floatTransfer      : 0
    nProcsSimpleSum    : 0
    commsType          : nonBlocking
    polling iterations : 0
trapFpe: Floating point exception trapping enabled (FOAM_SIGFPE).
fileModificationChecking : Monitoring run-time modified files using timeStampMaster (fileModificationSkew 5, maxFileModificationPolls 20)
allowSystemOperations : Allowing user-supplied system call operations

// * * * * * * * * * * * * * * * * * * * * * * * * * * * * * * * * * * * * * //
Create time

Create mesh for time = 0


PISO: Operating solver in PISO mode

Reading transportProperties

Reading field p

Reading field U

Reading/calculating face flux field phi


Starting time loop

Time = 0.001

Courant Number mean: 0 max: 0
DILUPBiCGStab:  Solving for Ux, Initial residual = 1, Final residual = 0.00976191, No Iterations 5
DILUPBiCGStab:  Solving for Uy:  solution singularity
DILUPBiCGStab:  Solving for Uz:  solution singularity
linear solve U 65956
[OGL LOG][Proc: 0]global_index_init : 12441 mu s
[OGL LOG][Proc: 0]global_index_init : 2 mu s
[OGL LOG][Proc: 0]global_index_init : 2 mu s
[OGL LOG][Proc: 0]global_index_init : 1 mu s
[OGL LOG][Proc: 0]init_host_sparsity_pattern : 590516 mu s
[OGL LOG][Proc: 0]update_host_matrix_data : 4929 mu s
[OGL LOG][Proc: 0]convert_coo_to_csr : 944 mu s
[OGL LOG][Proc: 0]gather_initGuess : 4309 mu s
[OGL LOG][Proc: 0]gather_RHS : 1875 mu s
[OGL LOG][Proc: 0]gather_global_matrix : 0 mu s
[OGL LOG][Proc: 0]init_precond : 43 mu s
[OGL LOG][Proc: 0]generate_solver : 27 mu s
[OGL LOG][Proc: 0]solve : 248284 mu s
[OGL LOG][Proc: 0]retrieve_result_from_device : 3121 mu s
nonecudaGKOCG:  Solving for p, Initial residual = 1, Final residual = 9.67315e-07, No Iterations 901
linear solve p 2661347
time step continuity errors : sum local = 5.59741e-10, global = 1.59842e-20, cumulative = 1.59842e-20
[OGL LOG][Proc: 0]global_index_init : 48 mu s
[OGL LOG][Proc: 0]global_index_init : 1 mu s
[OGL LOG][Proc: 0]global_index_init : 3 mu s
[OGL LOG][Proc: 0]global_index_init : 1 mu s
[OGL LOG][Proc: 0]update_host_matrix_data : 3437 mu s
[OGL LOG][Proc: 0]gather_initGuess : 6 mu s
[OGL LOG][Proc: 0]gather_RHS : 3817 mu s
[OGL LOG][Proc: 0]gather_global_matrix : 0 mu s
read from registry
[OGL LOG][Proc: 0]init_precond : 17 mu s
[OGL LOG][Proc: 0]generate_solver : 1 mu s
[OGL LOG][Proc: 0]solve : 195792 mu s
[OGL LOG][Proc: 0]retrieve_result_from_device : 2439 mu s
nonecudaGKOCG:  Solving for p, Initial residual = 0.777378, Final residual = 6.70136e-07, No Iterations 901
linear solve p 207521
time step continuity errors : sum local = 4.88704e-10, global = -8.0537e-22, cumulative = 1.51788e-20
ExecutionTime = 3.21 s  ClockTime = 4 s

Time = 0.002

Courant Number mean: 0.0555224 max: 0.807219
DILUPBiCGStab:  Solving for Ux, Initial residual = 0.137481, Final residual = 0.00480444, No Iterations 5
DILUPBiCGStab:  Solving for Uy, Initial residual = 0.431367, Final residual = 0.0127824, No Iterations 5
DILUPBiCGStab:  Solving for Uz, Initial residual = 0.97357, Final residual = 0.0274119, No Iterations 5
linear solve U 127926
[OGL LOG][Proc: 0]global_index_init : 19 mu s
[OGL LOG][Proc: 0]global_index_init : 2 mu s
[OGL LOG][Proc: 0]global_index_init : 2 mu s
[OGL LOG][Proc: 0]global_index_init : 1 mu s
[OGL LOG][Proc: 0]update_host_matrix_data : 3397 mu s
[OGL LOG][Proc: 0]gather_initGuess : 3 mu s
[OGL LOG][Proc: 0]gather_RHS : 3364 mu s
[OGL LOG][Proc: 0]gather_global_matrix : 0 mu s
read from registry
[OGL LOG][Proc: 0]init_precond : 7 mu s
[OGL LOG][Proc: 0]generate_solver : 1 mu s
[OGL LOG][Proc: 0]solve : 195529 mu s
[OGL LOG][Proc: 0]retrieve_result_from_device : 1677 mu s
nonecudaGKOCG:  Solving for p, Initial residual = 0.808994, Final residual = 4.77156e-07, No Iterations 901
linear solve p 205917
time step continuity errors : sum local = 5.11533e-10, global = -1.08971e-20, cumulative = 4.28169e-21
[OGL LOG][Proc: 0]global_index_init : 7 mu s
[OGL LOG][Proc: 0]global_index_init : 2 mu s
[OGL LOG][Proc: 0]global_index_init : 2 mu s
[OGL LOG][Proc: 0]global_index_init : 1 mu s
[OGL LOG][Proc: 0]update_host_matrix_data : 3383 mu s
[OGL LOG][Proc: 0]gather_initGuess : 1 mu s
[OGL LOG][Proc: 0]gather_RHS : 2637 mu s
[OGL LOG][Proc: 0]gather_global_matrix : 0 mu s
read from registry
[OGL LOG][Proc: 0]init_precond : 6 mu s
[OGL LOG][Proc: 0]generate_solver : 1 mu s
[OGL LOG][Proc: 0]solve : 195420 mu s
[OGL LOG][Proc: 0]retrieve_result_from_device : 1671 mu s
nonecudaGKOCG:  Solving for p, Initial residual = 0.74964, Final residual = 4.06032e-07, No Iterations 901
linear solve p 205046
time step continuity errors : sum local = 4.4421e-10, global = 1.8895e-21, cumulative = 6.17119e-21
ExecutionTime = 3.83 s  ClockTime = 4 s

Time = 0.003

Courant Number mean: 0.0846038 max: 0.943672
DILUPBiCGStab:  Solving for Ux, Initial residual = 0.0646795, Final residual = 0.00170435, No Iterations 5
DILUPBiCGStab:  Solving for Uy, Initial residual = 0.226339, Final residual = 0.00427099, No Iterations 5
DILUPBiCGStab:  Solving for Uz, Initial residual = 0.765697, Final residual = 0.0189349, No Iterations 5
linear solve U 126179
[OGL LOG][Proc: 0]global_index_init : 33 mu s
[OGL LOG][Proc: 0]global_index_init : 1 mu s
[OGL LOG][Proc: 0]global_index_init : 2 mu s
[OGL LOG][Proc: 0]global_index_init : 1 mu s
[OGL LOG][Proc: 0]update_host_matrix_data : 4068 mu s
[OGL LOG][Proc: 0]gather_initGuess : 1 mu s
[OGL LOG][Proc: 0]gather_RHS : 2654 mu s
[OGL LOG][Proc: 0]gather_global_matrix : 0 mu s
read from registry
[OGL LOG][Proc: 0]init_precond : 7 mu s
[OGL LOG][Proc: 0]generate_solver : 1 mu s
[OGL LOG][Proc: 0]solve : 195561 mu s
[OGL LOG][Proc: 0]retrieve_result_from_device : 1689 mu s
nonecudaGKOCG:  Solving for p, Initial residual = 0.837716, Final residual = 4.1872e-07, No Iterations 901
linear solve p 205881
time step continuity errors : sum local = 4.14454e-10, global = -8.07298e-21, cumulative = -1.90179e-21
[OGL LOG][Proc: 0]global_index_init : 5 mu s
[OGL LOG][Proc: 0]global_index_init : 1 mu s
[OGL LOG][Proc: 0]global_index_init : 2 mu s
[OGL LOG][Proc: 0]global_index_init : 1 mu s
[OGL LOG][Proc: 0]update_host_matrix_data : 3301 mu s
[OGL LOG][Proc: 0]gather_initGuess : 1 mu s
[OGL LOG][Proc: 0]gather_RHS : 2676 mu s
[OGL LOG][Proc: 0]gather_global_matrix : 0 mu s
read from registry
[OGL LOG][Proc: 0]init_precond : 6 mu s
[OGL LOG][Proc: 0]generate_solver : 1 mu s
[OGL LOG][Proc: 0]solve : 195516 mu s
[OGL LOG][Proc: 0]retrieve_result_from_device : 1676 mu s
nonecudaGKOCG:  Solving for p, Initial residual = 0.805107, Final residual = 3.93572e-07, No Iterations 901
linear solve p 205197
time step continuity errors : sum local = 3.80108e-10, global = 7.40091e-21, cumulative = 5.49912e-21
ExecutionTime = 4.46 s  ClockTime = 5 s

End

Finalising parallel run
================================================================================
hash: c263806e777e3ddf8a2cee28fb5b9faa
/*---------------------------------------------------------------------------*\
| =========                 |                                                 |
| \\      /  F ield         | OpenFOAM: The Open Source CFD Toolbox           |
|  \\    /   O peration     | Version:  2112                                  |
|   \\  /    A nd           | Website:  www.openfoam.com                      |
|    \\/     M anipulation  |                                                 |
\*---------------------------------------------------------------------------*/
Build  : d44c8318f0-20220111 OPENFOAM=2112 version=v2112
Arch   : "LSB;label=32;scalar=64"
Exec   : icoFoam -parallel
Date   : Jan 30 2022
Time   : 21:01:52
Host   : hkn0502.localdomain
PID    : 612923
I/O    : uncollated
Case   : /hkfs/home/project/hk-project-test-fine/eq4036/data/code/ogl_labbook/lidDrivenCavity/solver/Variation_mesh/100/Variation_matrix_solver/CG_Multigrid_CUDA/Variation_mpiRank/8/base
nProcs : 8
Hosts  :
(
    (hkn0502.localdomain 8)
)
Pstream initialized with:
    floatTransfer      : 0
    nProcsSimpleSum    : 0
    commsType          : nonBlocking
    polling iterations : 0
trapFpe: Floating point exception trapping enabled (FOAM_SIGFPE).
fileModificationChecking : Monitoring run-time modified files using timeStampMaster (fileModificationSkew 5, maxFileModificationPolls 20)
allowSystemOperations : Allowing user-supplied system call operations

// * * * * * * * * * * * * * * * * * * * * * * * * * * * * * * * * * * * * * //
Create time

Create mesh for time = 0


PISO: Operating solver in PISO mode

Reading transportProperties

Reading field p

Reading field U

Reading/calculating face flux field phi


Starting time loop

Time = 0.001

Courant Number mean: 0 max: 0
DILUPBiCGStab:  Solving for Ux, Initial residual = 1, Final residual = 0.00976191, No Iterations 5
DILUPBiCGStab:  Solving for Uy:  solution singularity
DILUPBiCGStab:  Solving for Uz:  solution singularity
linear solve U 65959
[OGL LOG][Proc: 0]global_index_init : 26404 mu s
[OGL LOG][Proc: 0]global_index_init : 4 mu s
[OGL LOG][Proc: 0]global_index_init : 2 mu s
[OGL LOG][Proc: 0]global_index_init : 1 mu s
[OGL LOG][Proc: 0]init_host_sparsity_pattern : 581043 mu s
[OGL LOG][Proc: 0]update_host_matrix_data : 4888 mu s
[OGL LOG][Proc: 0]convert_coo_to_csr : 917 mu s
[OGL LOG][Proc: 0]gather_initGuess : 5363 mu s
[OGL LOG][Proc: 0]gather_RHS : 1766 mu s
[OGL LOG][Proc: 0]gather_global_matrix : 0 mu s
[OGL LOG][Proc: 0]init_precond : 157281 mu s
[OGL LOG][Proc: 0]generate_solver : 1 mu s
[OGL LOG][Proc: 0]solve : 1130782 mu s
[OGL LOG][Proc: 0]retrieve_result_from_device : 2486 mu s
MultigridcudaGKOCG:  Solving for p, Initial residual = 1, Final residual = 9.4081e-07, No Iterations 84
linear solve p 3692419
time step continuity errors : sum local = 5.58401e-10, global = 1.46372e-20, cumulative = 1.46372e-20
[OGL LOG][Proc: 0]global_index_init : 26 mu s
[OGL LOG][Proc: 0]global_index_init : 2 mu s
[OGL LOG][Proc: 0]global_index_init : 2 mu s
[OGL LOG][Proc: 0]global_index_init : 1 mu s
[OGL LOG][Proc: 0]update_host_matrix_data : 3409 mu s
[OGL LOG][Proc: 0]gather_initGuess : 6 mu s
[OGL LOG][Proc: 0]gather_RHS : 5005 mu s
[OGL LOG][Proc: 0]gather_global_matrix : 0 mu s
read from registry
[OGL LOG][Proc: 0]init_precond : 18 mu s
[OGL LOG][Proc: 0]generate_solver : 1 mu s
[OGL LOG][Proc: 0]solve : 1145579 mu s
[OGL LOG][Proc: 0]retrieve_result_from_device : 1794 mu s
MultigridcudaGKOCG:  Solving for p, Initial residual = 0.777378, Final residual = 5.44463e-07, No Iterations 85
linear solve p 1157978
time step continuity errors : sum local = 4.07051e-10, global = 1.21012e-21, cumulative = 1.58474e-20
ExecutionTime = 5.16 s  ClockTime = 5 s

Time = 0.002

Courant Number mean: 0.0555224 max: 0.807219
DILUPBiCGStab:  Solving for Ux, Initial residual = 0.137481, Final residual = 0.00480445, No Iterations 5
DILUPBiCGStab:  Solving for Uy, Initial residual = 0.431367, Final residual = 0.0127824, No Iterations 5
DILUPBiCGStab:  Solving for Uz, Initial residual = 0.973571, Final residual = 0.0274117, No Iterations 5
linear solve U 122600
[OGL LOG][Proc: 0]global_index_init : 14 mu s
[OGL LOG][Proc: 0]global_index_init : 1 mu s
[OGL LOG][Proc: 0]global_index_init : 1 mu s
[OGL LOG][Proc: 0]global_index_init : 1 mu s
[OGL LOG][Proc: 0]update_host_matrix_data : 4101 mu s
[OGL LOG][Proc: 0]gather_initGuess : 1 mu s
[OGL LOG][Proc: 0]gather_RHS : 3167 mu s
[OGL LOG][Proc: 0]gather_global_matrix : 0 mu s
read from registry
[OGL LOG][Proc: 0]init_precond : 7 mu s
[OGL LOG][Proc: 0]generate_solver : 0 mu s
[OGL LOG][Proc: 0]solve : 1110739 mu s
[OGL LOG][Proc: 0]retrieve_result_from_device : 2508 mu s
MultigridcudaGKOCG:  Solving for p, Initial residual = 0.808994, Final residual = 9.90846e-07, No Iterations 82
linear solve p 1123009
time step continuity errors : sum local = 1.06387e-09, global = -8.30851e-22, cumulative = 1.50165e-20
[OGL LOG][Proc: 0]global_index_init : 31 mu s
[OGL LOG][Proc: 0]global_index_init : 2 mu s
[OGL LOG][Proc: 0]global_index_init : 2 mu s
[OGL LOG][Proc: 0]global_index_init : 1 mu s
[OGL LOG][Proc: 0]update_host_matrix_data : 3410 mu s
[OGL LOG][Proc: 0]gather_initGuess : 1 mu s
[OGL LOG][Proc: 0]gather_RHS : 2573 mu s
[OGL LOG][Proc: 0]gather_global_matrix : 0 mu s
read from registry
[OGL LOG][Proc: 0]init_precond : 6 mu s
[OGL LOG][Proc: 0]generate_solver : 1 mu s
[OGL LOG][Proc: 0]solve : 1107408 mu s
[OGL LOG][Proc: 0]retrieve_result_from_device : 2342 mu s
MultigridcudaGKOCG:  Solving for p, Initial residual = 0.74964, Final residual = 8.45945e-07, No Iterations 82
linear solve p 1117740
time step continuity errors : sum local = 9.26662e-10, global = 2.94799e-22, cumulative = 1.53113e-20
ExecutionTime = 7.6 s  ClockTime = 8 s

Time = 0.003

Courant Number mean: 0.0846038 max: 0.943672
DILUPBiCGStab:  Solving for Ux, Initial residual = 0.0646797, Final residual = 0.00170436, No Iterations 5
DILUPBiCGStab:  Solving for Uy, Initial residual = 0.226339, Final residual = 0.00427102, No Iterations 5
DILUPBiCGStab:  Solving for Uz, Initial residual = 0.765696, Final residual = 0.0189347, No Iterations 5
linear solve U 122341
[OGL LOG][Proc: 0]global_index_init : 42 mu s
[OGL LOG][Proc: 0]global_index_init : 2 mu s
[OGL LOG][Proc: 0]global_index_init : 2 mu s
[OGL LOG][Proc: 0]global_index_init : 1 mu s
[OGL LOG][Proc: 0]update_host_matrix_data : 3525 mu s
[OGL LOG][Proc: 0]gather_initGuess : 1 mu s
[OGL LOG][Proc: 0]gather_RHS : 2545 mu s
[OGL LOG][Proc: 0]gather_global_matrix : 0 mu s
read from registry
[OGL LOG][Proc: 0]init_precond : 6 mu s
[OGL LOG][Proc: 0]generate_solver : 0 mu s
[OGL LOG][Proc: 0]solve : 908053 mu s
[OGL LOG][Proc: 0]retrieve_result_from_device : 2648 mu s
MultigridcudaGKOCG:  Solving for p, Initial residual = 0.837716, Final residual = 3.65064e-07, No Iterations 67
linear solve p 918725
time step continuity errors : sum local = 3.82329e-10, global = -1.40579e-20, cumulative = 1.25342e-21
[OGL LOG][Proc: 0]global_index_init : 30 mu s
[OGL LOG][Proc: 0]global_index_init : 1 mu s
[OGL LOG][Proc: 0]global_index_init : 2 mu s
[OGL LOG][Proc: 0]global_index_init : 1 mu s
[OGL LOG][Proc: 0]update_host_matrix_data : 4040 mu s
[OGL LOG][Proc: 0]gather_initGuess : 2 mu s
[OGL LOG][Proc: 0]gather_RHS : 2608 mu s
[OGL LOG][Proc: 0]gather_global_matrix : 0 mu s
read from registry
[OGL LOG][Proc: 0]init_precond : 7 mu s
[OGL LOG][Proc: 0]generate_solver : 1 mu s
[OGL LOG][Proc: 0]solve : 855540 mu s
[OGL LOG][Proc: 0]retrieve_result_from_device : 2453 mu s
MultigridcudaGKOCG:  Solving for p, Initial residual = 0.805107, Final residual = 5.10744e-07, No Iterations 63
linear solve p 867270
time step continuity errors : sum local = 5.11391e-10, global = 1.92131e-21, cumulative = 3.17474e-21
ExecutionTime = 9.59 s  ClockTime = 10 s

End

Finalising parallel run
================================================================================
