hash: 47428b46866b44a11204a1f7144a6210
/*---------------------------------------------------------------------------*\
| =========                 |                                                 |
| \\      /  F ield         | OpenFOAM: The Open Source CFD Toolbox           |
|  \\    /   O peration     | Version:  2112                                  |
|   \\  /    A nd           | Website:  www.openfoam.com                      |
|    \\/     M anipulation  |                                                 |
\*---------------------------------------------------------------------------*/
Build  : d44c8318f0-20220111 OPENFOAM=2112 version=v2112
Arch   : "LSB;label=32;scalar=64"
Exec   : icoFoam -parallel
Date   : Jan 30 2022
Time   : 10:15:04
Host   : hkn1621.localdomain
PID    : 3821115
I/O    : uncollated
Case   : /hkfs/home/project/hk-project-test-fine/eq4036/data/code/ogl_labbook/lidDrivenCavity/solver/Variation_mesh/100/Variation_matrix_solver/BiCGStab_DIC_DefaultOF/Variation_mpiRank/72/base
nProcs : 72
Hosts  :
(
    (hkn1621.localdomain 72)
)
Pstream initialized with:
    floatTransfer      : 0
    nProcsSimpleSum    : 0
    commsType          : nonBlocking
    polling iterations : 0
trapFpe: Floating point exception trapping enabled (FOAM_SIGFPE).
fileModificationChecking : Monitoring run-time modified files using timeStampMaster (fileModificationSkew 5, maxFileModificationPolls 20)
allowSystemOperations : Allowing user-supplied system call operations

// * * * * * * * * * * * * * * * * * * * * * * * * * * * * * * * * * * * * * //
Create time

Create mesh for time = 0


PISO: Operating solver in PISO mode

Reading transportProperties

Reading field p

Reading field U

Reading/calculating face flux field phi


Starting time loop

Time = 0.001

Courant Number mean: 0 max: 0
DILUPBiCGStab:  Solving for Ux, Initial residual = 1, Final residual = 0.0122484, No Iterations 5
DILUPBiCGStab:  Solving for Uy:  solution singularity
DILUPBiCGStab:  Solving for Uz:  solution singularity
linear solve U 11811
DICPBiCGStab:  Solving for p, Initial residual = 1, Final residual = 6.54761e-07, No Iterations 278
linear solve p 213159
time step continuity errors : sum local = 4.0473e-10, global = -1.58044e-20, cumulative = -1.58044e-20
DICPBiCGStab:  Solving for p, Initial residual = 0.772332, Final residual = 6.80693e-07, No Iterations 262
linear solve p 218223
time step continuity errors : sum local = 5.90765e-10, global = -1.30083e-20, cumulative = -2.88127e-20
ExecutionTime = 0.7 s  ClockTime = 1 s

Time = 0.002

Courant Number mean: 0.055058 max: 0.807874
DILUPBiCGStab:  Solving for Ux, Initial residual = 0.137027, Final residual = 0.00657436, No Iterations 5
DILUPBiCGStab:  Solving for Uy, Initial residual = 0.431779, Final residual = 0.0185169, No Iterations 5
DILUPBiCGStab:  Solving for Uz, Initial residual = 0.940929, Final residual = 0.0388575, No Iterations 5
linear solve U 18102
DICPBiCGStab:  Solving for p, Initial residual = 0.820007, Final residual = 8.76814e-07, No Iterations 263
linear solve p 202668
time step continuity errors : sum local = 1.26249e-09, global = -3.53396e-20, cumulative = -6.41524e-20
DICPBiCGStab:  Solving for p, Initial residual = 0.755776, Final residual = 6.23462e-07, No Iterations 254
linear solve p 186704
time step continuity errors : sum local = 1.17117e-09, global = -2.11608e-20, cumulative = -8.53132e-20
ExecutionTime = 1.13 s  ClockTime = 1 s

Time = 0.003

Courant Number mean: 0.0839658 max: 0.944024
DILUPBiCGStab:  Solving for Ux, Initial residual = 0.0643548, Final residual = 0.00235519, No Iterations 5
DILUPBiCGStab:  Solving for Uy, Initial residual = 0.225564, Final residual = 0.00619792, No Iterations 5
DILUPBiCGStab:  Solving for Uz, Initial residual = 0.72266, Final residual = 0.0266304, No Iterations 5
linear solve U 16450
DICPBiCGStab:  Solving for p, Initial residual = 0.842368, Final residual = 4.26129e-07, No Iterations 255
linear solve p 188114
time step continuity errors : sum local = 5.37618e-10, global = -6.8813e-21, cumulative = -9.21945e-20
DICPBiCGStab:  Solving for p, Initial residual = 0.806313, Final residual = 9.17287e-07, No Iterations 271
linear solve p 200012
time step continuity errors : sum local = 9.3434e-10, global = -2.16452e-20, cumulative = -1.1384e-19
ExecutionTime = 1.55 s  ClockTime = 2 s

End

Finalising parallel run
================================================================================
hash: 2611035044a7d0e5c39177095c8bb407
/*---------------------------------------------------------------------------*\
| =========                 |                                                 |
| \\      /  F ield         | OpenFOAM: The Open Source CFD Toolbox           |
|  \\    /   O peration     | Version:  2112                                  |
|   \\  /    A nd           | Website:  www.openfoam.com                      |
|    \\/     M anipulation  |                                                 |
\*---------------------------------------------------------------------------*/
Build  : d44c8318f0-20220111 OPENFOAM=2112 version=v2112
Arch   : "LSB;label=32;scalar=64"
Exec   : icoFoam -parallel
Date   : Jan 30 2022
Time   : 10:15:10
Host   : hkn1621.localdomain
PID    : 3822715
I/O    : uncollated
Case   : /hkfs/home/project/hk-project-test-fine/eq4036/data/code/ogl_labbook/lidDrivenCavity/solver/Variation_mesh/100/Variation_matrix_solver/BiCGStab_NoPrecond_DefaultOF/Variation_mpiRank/72/base
nProcs : 72
Hosts  :
(
    (hkn1621.localdomain 72)
)
Pstream initialized with:
    floatTransfer      : 0
    nProcsSimpleSum    : 0
    commsType          : nonBlocking
    polling iterations : 0
trapFpe: Floating point exception trapping enabled (FOAM_SIGFPE).
fileModificationChecking : Monitoring run-time modified files using timeStampMaster (fileModificationSkew 5, maxFileModificationPolls 20)
allowSystemOperations : Allowing user-supplied system call operations

// * * * * * * * * * * * * * * * * * * * * * * * * * * * * * * * * * * * * * //
Create time

Create mesh for time = 0


PISO: Operating solver in PISO mode

Reading transportProperties

Reading field p

Reading field U

Reading/calculating face flux field phi


Starting time loop

Time = 0.001

Courant Number mean: 0 max: 0
DILUPBiCGStab:  Solving for Ux, Initial residual = 1, Final residual = 0.0122484, No Iterations 5
DILUPBiCGStab:  Solving for Uy:  solution singularity
DILUPBiCGStab:  Solving for Uz:  solution singularity
linear solve U 11840
nonePBiCGStab:  Solving for p, Initial residual = 1, Final residual = 6.02437e-07, No Iterations 649
linear solve p 324403
time step continuity errors : sum local = 6.3865e-10, global = -6.37632e-21, cumulative = -6.37632e-21
nonePBiCGStab:  Solving for p, Initial residual = 0.772333, Final residual = 6.83665e-07, No Iterations 649
linear solve p 356334
time step continuity errors : sum local = 1.03035e-09, global = -4.75706e-21, cumulative = -1.11334e-20
ExecutionTime = 0.86 s  ClockTime = 1 s

Time = 0.002

Courant Number mean: 0.055058 max: 0.807874
DILUPBiCGStab:  Solving for Ux, Initial residual = 0.137029, Final residual = 0.00657446, No Iterations 5
DILUPBiCGStab:  Solving for Uy, Initial residual = 0.431781, Final residual = 0.018517, No Iterations 5
DILUPBiCGStab:  Solving for Uz, Initial residual = 0.940931, Final residual = 0.0388596, No Iterations 5
linear solve U 18729
nonePBiCGStab:  Solving for p, Initial residual = 0.820003, Final residual = 9.4377e-07, No Iterations 635
linear solve p 314648
time step continuity errors : sum local = 2.12925e-09, global = -5.93547e-20, cumulative = -7.0488e-20
nonePBiCGStab:  Solving for p, Initial residual = 0.755769, Final residual = 2.27771e-07, No Iterations 657
linear solve p 322654
time step continuity errors : sum local = 3.89636e-10, global = -2.25558e-20, cumulative = -9.30439e-20
ExecutionTime = 1.54 s  ClockTime = 2 s

Time = 0.003

Courant Number mean: 0.083966 max: 0.944023
DILUPBiCGStab:  Solving for Ux, Initial residual = 0.0643552, Final residual = 0.00235512, No Iterations 5
DILUPBiCGStab:  Solving for Uy, Initial residual = 0.225565, Final residual = 0.0061974, No Iterations 5
DILUPBiCGStab:  Solving for Uz, Initial residual = 0.722669, Final residual = 0.0266315, No Iterations 5
linear solve U 17388
nonePBiCGStab:  Solving for p, Initial residual = 0.842368, Final residual = 8.36354e-07, No Iterations 647
linear solve p 317755
time step continuity errors : sum local = 1.54647e-09, global = -2.52213e-20, cumulative = -1.18265e-19
nonePBiCGStab:  Solving for p, Initial residual = 0.80631, Final residual = 7.75999e-07, No Iterations 660
linear solve p 324720
time step continuity errors : sum local = 1.37753e-09, global = -2.69037e-20, cumulative = -1.45169e-19
ExecutionTime = 2.22 s  ClockTime = 2 s

End

Finalising parallel run
================================================================================
hash: 91951d2c3fbca146f741c1dba932d194
/*---------------------------------------------------------------------------*\
| =========                 |                                                 |
| \\      /  F ield         | OpenFOAM: The Open Source CFD Toolbox           |
|  \\    /   O peration     | Version:  2112                                  |
|   \\  /    A nd           | Website:  www.openfoam.com                      |
|    \\/     M anipulation  |                                                 |
\*---------------------------------------------------------------------------*/
Build  : d44c8318f0-20220111 OPENFOAM=2112 version=v2112
Arch   : "LSB;label=32;scalar=64"
Exec   : icoFoam -parallel
Date   : Jan 30 2022
Time   : 10:15:16
Host   : hkn1621.localdomain
PID    : 3824308
I/O    : uncollated
Case   : /hkfs/home/project/hk-project-test-fine/eq4036/data/code/ogl_labbook/lidDrivenCavity/solver/Variation_mesh/100/Variation_matrix_solver/BiCGStab_GAMG_DefaultOF/Variation_mpiRank/72/base
nProcs : 72
Hosts  :
(
    (hkn1621.localdomain 72)
)
Pstream initialized with:
    floatTransfer      : 0
    nProcsSimpleSum    : 0
    commsType          : nonBlocking
    polling iterations : 0
trapFpe: Floating point exception trapping enabled (FOAM_SIGFPE).
fileModificationChecking : Monitoring run-time modified files using timeStampMaster (fileModificationSkew 5, maxFileModificationPolls 20)
allowSystemOperations : Allowing user-supplied system call operations

// * * * * * * * * * * * * * * * * * * * * * * * * * * * * * * * * * * * * * //
Create time

Create mesh for time = 0


PISO: Operating solver in PISO mode

Reading transportProperties

Reading field p

Reading field U

Reading/calculating face flux field phi


Starting time loop

Time = 0.001

Courant Number mean: 0 max: 0
DILUPBiCGStab:  Solving for Ux, Initial residual = 1, Final residual = 0.0122484, No Iterations 5
DILUPBiCGStab:  Solving for Uy:  solution singularity
DILUPBiCGStab:  Solving for Uz:  solution singularity
linear solve U 11706
GAMGPBiCGStab:  Solving for p, Initial residual = 1, Final residual = 3.98437e-07, No Iterations 4
linear solve p 985286
time step continuity errors : sum local = 2.4242e-10, global = 1.64887e-20, cumulative = 1.64887e-20
GAMGPBiCGStab:  Solving for p, Initial residual = 0.772332, Final residual = 5.32864e-07, No Iterations 4
linear solve p 939661
time step continuity errors : sum local = 4.10112e-10, global = -1.65172e-20, cumulative = -2.84456e-23
ExecutionTime = 2.11 s  ClockTime = 2 s

Time = 0.002

Courant Number mean: 0.0550579 max: 0.807874
DILUPBiCGStab:  Solving for Ux, Initial residual = 0.137027, Final residual = 0.00657434, No Iterations 5
DILUPBiCGStab:  Solving for Uy, Initial residual = 0.431779, Final residual = 0.0185169, No Iterations 5
DILUPBiCGStab:  Solving for Uz, Initial residual = 0.940928, Final residual = 0.0388573, No Iterations 5
linear solve U 16896
GAMGPBiCGStab:  Solving for p, Initial residual = 0.820007, Final residual = 4.44522e-07, No Iterations 4
linear solve p 967339
time step continuity errors : sum local = 5.08773e-10, global = -1.97414e-20, cumulative = -1.97699e-20
GAMGPBiCGStab:  Solving for p, Initial residual = 0.755777, Final residual = 3.66002e-07, No Iterations 4
linear solve p 938175
time step continuity errors : sum local = 4.28112e-10, global = -2.80326e-20, cumulative = -4.78025e-20
ExecutionTime = 4.05 s  ClockTime = 4 s

Time = 0.003

Courant Number mean: 0.0839658 max: 0.944024
DILUPBiCGStab:  Solving for Ux, Initial residual = 0.0643558, Final residual = 0.00235535, No Iterations 5
DILUPBiCGStab:  Solving for Uy, Initial residual = 0.225566, Final residual = 0.00619857, No Iterations 5
DILUPBiCGStab:  Solving for Uz, Initial residual = 0.722661, Final residual = 0.0266282, No Iterations 5
linear solve U 17265
GAMGPBiCGStab:  Solving for p, Initial residual = 0.842366, Final residual = 3.1137e-07, No Iterations 4
linear solve p 938627
time step continuity errors : sum local = 3.19044e-10, global = -1.5807e-20, cumulative = -6.36095e-20
GAMGPBiCGStab:  Solving for p, Initial residual = 0.806322, Final residual = 2.76925e-07, No Iterations 4
linear solve p 971789
time step continuity errors : sum local = 2.77337e-10, global = -3.06169e-20, cumulative = -9.42264e-20
ExecutionTime = 5.99 s  ClockTime = 6 s

End

Finalising parallel run
================================================================================
hash: 1fd0dfb0be6a5d6a7881a01045e02f58
/*---------------------------------------------------------------------------*\
| =========                 |                                                 |
| \\      /  F ield         | OpenFOAM: The Open Source CFD Toolbox           |
|  \\    /   O peration     | Version:  2112                                  |
|   \\  /    A nd           | Website:  www.openfoam.com                      |
|    \\/     M anipulation  |                                                 |
\*---------------------------------------------------------------------------*/
Build  : d44c8318f0-20220111 OPENFOAM=2112 version=v2112
Arch   : "LSB;label=32;scalar=64"
Exec   : icoFoam -parallel
Date   : Jan 30 2022
Time   : 10:15:25
Host   : hkn1621.localdomain
PID    : 3825916
I/O    : uncollated
Case   : /hkfs/home/project/hk-project-test-fine/eq4036/data/code/ogl_labbook/lidDrivenCavity/solver/Variation_mesh/100/Variation_matrix_solver/CG_NoPrecond_DefaultOF/Variation_mpiRank/72/base
nProcs : 72
Hosts  :
(
    (hkn1621.localdomain 72)
)
Pstream initialized with:
    floatTransfer      : 0
    nProcsSimpleSum    : 0
    commsType          : nonBlocking
    polling iterations : 0
trapFpe: Floating point exception trapping enabled (FOAM_SIGFPE).
fileModificationChecking : Monitoring run-time modified files using timeStampMaster (fileModificationSkew 5, maxFileModificationPolls 20)
allowSystemOperations : Allowing user-supplied system call operations

// * * * * * * * * * * * * * * * * * * * * * * * * * * * * * * * * * * * * * //
Create time

Create mesh for time = 0


PISO: Operating solver in PISO mode

Reading transportProperties

Reading field p

Reading field U

Reading/calculating face flux field phi


Starting time loop

Time = 0.001

Courant Number mean: 0 max: 0
DILUPBiCGStab:  Solving for Ux, Initial residual = 1, Final residual = 0.0122484, No Iterations 5
DILUPBiCGStab:  Solving for Uy:  solution singularity
DILUPBiCGStab:  Solving for Uz:  solution singularity
linear solve U 11975
nonePCG:  Solving for p, Initial residual = 1, Final residual = 9.76172e-07, No Iterations 860
linear solve p 178283
time step continuity errors : sum local = 5.92437e-10, global = -1.19921e-20, cumulative = -1.19921e-20
nonePCG:  Solving for p, Initial residual = 0.772332, Final residual = 9.54465e-07, No Iterations 855
linear solve p 199281
time step continuity errors : sum local = 7.32679e-10, global = -2.35265e-21, cumulative = -1.43447e-20
ExecutionTime = 0.56 s  ClockTime = 1 s

Time = 0.002

Courant Number mean: 0.0550579 max: 0.807874
DILUPBiCGStab:  Solving for Ux, Initial residual = 0.137027, Final residual = 0.00657434, No Iterations 5
DILUPBiCGStab:  Solving for Uy, Initial residual = 0.431779, Final residual = 0.0185169, No Iterations 5
DILUPBiCGStab:  Solving for Uz, Initial residual = 0.940929, Final residual = 0.0388572, No Iterations 5
linear solve U 20376
nonePCG:  Solving for p, Initial residual = 0.820007, Final residual = 9.54341e-07, No Iterations 835
linear solve p 174328
time step continuity errors : sum local = 1.08711e-09, global = -4.07352e-21, cumulative = -1.84182e-20
nonePCG:  Solving for p, Initial residual = 0.755777, Final residual = 9.40344e-07, No Iterations 832
linear solve p 178043
time step continuity errors : sum local = 1.09913e-09, global = -1.80973e-20, cumulative = -3.65155e-20
ExecutionTime = 0.95 s  ClockTime = 2 s

Time = 0.003

Courant Number mean: 0.0839658 max: 0.944024
DILUPBiCGStab:  Solving for Ux, Initial residual = 0.0643558, Final residual = 0.00235535, No Iterations 5
DILUPBiCGStab:  Solving for Uy, Initial residual = 0.225566, Final residual = 0.00619855, No Iterations 5
DILUPBiCGStab:  Solving for Uz, Initial residual = 0.722661, Final residual = 0.0266287, No Iterations 5
linear solve U 17516
nonePCG:  Solving for p, Initial residual = 0.842366, Final residual = 9.68631e-07, No Iterations 845
linear solve p 174099
time step continuity errors : sum local = 9.88962e-10, global = -2.79849e-20, cumulative = -6.45004e-20
nonePCG:  Solving for p, Initial residual = 0.806321, Final residual = 9.95007e-07, No Iterations 843
linear solve p 174233
time step continuity errors : sum local = 9.92951e-10, global = -2.37618e-20, cumulative = -8.82622e-20
ExecutionTime = 1.33 s  ClockTime = 2 s

End

Finalising parallel run
================================================================================
hash: 3afdd8cb1c5b04918ae9c5d0ad40bcf7
/*---------------------------------------------------------------------------*\
| =========                 |                                                 |
| \\      /  F ield         | OpenFOAM: The Open Source CFD Toolbox           |
|  \\    /   O peration     | Version:  2112                                  |
|   \\  /    A nd           | Website:  www.openfoam.com                      |
|    \\/     M anipulation  |                                                 |
\*---------------------------------------------------------------------------*/
Build  : d44c8318f0-20220111 OPENFOAM=2112 version=v2112
Arch   : "LSB;label=32;scalar=64"
Exec   : icoFoam -parallel
Date   : Jan 30 2022
Time   : 10:15:30
Host   : hkn1621.localdomain
PID    : 3827509
I/O    : uncollated
Case   : /hkfs/home/project/hk-project-test-fine/eq4036/data/code/ogl_labbook/lidDrivenCavity/solver/Variation_mesh/100/Variation_matrix_solver/CG_GAMG_DefaultOF/Variation_mpiRank/72/base
nProcs : 72
Hosts  :
(
    (hkn1621.localdomain 72)
)
Pstream initialized with:
    floatTransfer      : 0
    nProcsSimpleSum    : 0
    commsType          : nonBlocking
    polling iterations : 0
trapFpe: Floating point exception trapping enabled (FOAM_SIGFPE).
fileModificationChecking : Monitoring run-time modified files using timeStampMaster (fileModificationSkew 5, maxFileModificationPolls 20)
allowSystemOperations : Allowing user-supplied system call operations

// * * * * * * * * * * * * * * * * * * * * * * * * * * * * * * * * * * * * * //
Create time

Create mesh for time = 0


PISO: Operating solver in PISO mode

Reading transportProperties

Reading field p

Reading field U

Reading/calculating face flux field phi


Starting time loop

Time = 0.001

Courant Number mean: 0 max: 0
DILUPBiCGStab:  Solving for Ux, Initial residual = 1, Final residual = 0.0122484, No Iterations 5
DILUPBiCGStab:  Solving for Uy:  solution singularity
DILUPBiCGStab:  Solving for Uz:  solution singularity
linear solve U 12428
GAMGPCG:  Solving for p, Initial residual = 1, Final residual = 5.14982e-07, No Iterations 8
linear solve p 974973
time step continuity errors : sum local = 3.12549e-10, global = -2.43721e-21, cumulative = -2.43721e-21
GAMGPCG:  Solving for p, Initial residual = 0.772332, Final residual = 3.94047e-07, No Iterations 8
linear solve p 936660
time step continuity errors : sum local = 3.02484e-10, global = -1.95686e-20, cumulative = -2.20058e-20
ExecutionTime = 2.13 s  ClockTime = 3 s

Time = 0.002

Courant Number mean: 0.0550579 max: 0.807874
DILUPBiCGStab:  Solving for Ux, Initial residual = 0.137027, Final residual = 0.00657433, No Iterations 5
DILUPBiCGStab:  Solving for Uy, Initial residual = 0.431779, Final residual = 0.0185169, No Iterations 5
DILUPBiCGStab:  Solving for Uz, Initial residual = 0.940929, Final residual = 0.0388574, No Iterations 5
linear solve U 17013
GAMGPCG:  Solving for p, Initial residual = 0.820007, Final residual = 2.35215e-07, No Iterations 8
linear solve p 984497
time step continuity errors : sum local = 2.67996e-10, global = -2.97711e-20, cumulative = -5.17769e-20
GAMGPCG:  Solving for p, Initial residual = 0.755776, Final residual = 2.20528e-07, No Iterations 8
linear solve p 938428
time step continuity errors : sum local = 2.57825e-10, global = -7.71229e-21, cumulative = -5.94892e-20
ExecutionTime = 4.08 s  ClockTime = 5 s

Time = 0.003

Courant Number mean: 0.0839658 max: 0.944024
DILUPBiCGStab:  Solving for Ux, Initial residual = 0.0643558, Final residual = 0.00235535, No Iterations 5
DILUPBiCGStab:  Solving for Uy, Initial residual = 0.225566, Final residual = 0.00619854, No Iterations 5
DILUPBiCGStab:  Solving for Uz, Initial residual = 0.72266, Final residual = 0.0266284, No Iterations 5
linear solve U 17761
GAMGPCG:  Solving for p, Initial residual = 0.842366, Final residual = 6.92588e-07, No Iterations 7
linear solve p 821818
time step continuity errors : sum local = 7.0719e-10, global = 3.61678e-21, cumulative = -5.58724e-20
GAMGPCG:  Solving for p, Initial residual = 0.806321, Final residual = 6.38458e-07, No Iterations 7
linear solve p 850791
time step continuity errors : sum local = 6.37205e-10, global = -2.44973e-20, cumulative = -8.03697e-20
ExecutionTime = 5.79 s  ClockTime = 6 s

End

Finalising parallel run
================================================================================
hash: e28af7cca51487247655845255fe95c3
/*---------------------------------------------------------------------------*\
| =========                 |                                                 |
| \\      /  F ield         | OpenFOAM: The Open Source CFD Toolbox           |
|  \\    /   O peration     | Version:  2112                                  |
|   \\  /    A nd           | Website:  www.openfoam.com                      |
|    \\/     M anipulation  |                                                 |
\*---------------------------------------------------------------------------*/
Build  : d44c8318f0-20220111 OPENFOAM=2112 version=v2112
Arch   : "LSB;label=32;scalar=64"
Exec   : icoFoam -parallel
Date   : Jan 30 2022
Time   : 10:15:40
Host   : hkn1621.localdomain
PID    : 3829106
I/O    : uncollated
Case   : /hkfs/home/project/hk-project-test-fine/eq4036/data/code/ogl_labbook/lidDrivenCavity/solver/Variation_mesh/100/Variation_matrix_solver/CG_DIC_DefaultOF/Variation_mpiRank/72/base
nProcs : 72
Hosts  :
(
    (hkn1621.localdomain 72)
)
Pstream initialized with:
    floatTransfer      : 0
    nProcsSimpleSum    : 0
    commsType          : nonBlocking
    polling iterations : 0
trapFpe: Floating point exception trapping enabled (FOAM_SIGFPE).
fileModificationChecking : Monitoring run-time modified files using timeStampMaster (fileModificationSkew 5, maxFileModificationPolls 20)
allowSystemOperations : Allowing user-supplied system call operations

// * * * * * * * * * * * * * * * * * * * * * * * * * * * * * * * * * * * * * //
Create time

Create mesh for time = 0


PISO: Operating solver in PISO mode

Reading transportProperties

Reading field p

Reading field U

Reading/calculating face flux field phi


Starting time loop

Time = 0.001

Courant Number mean: 0 max: 0
DILUPBiCGStab:  Solving for Ux, Initial residual = 1, Final residual = 0.0122484, No Iterations 5
DILUPBiCGStab:  Solving for Uy:  solution singularity
DILUPBiCGStab:  Solving for Uz:  solution singularity
linear solve U 11916
DICPCG:  Solving for p, Initial residual = 1, Final residual = 9.66589e-07, No Iterations 399
linear solve p 145330
time step continuity errors : sum local = 5.86655e-10, global = -6.36048e-21, cumulative = -6.36048e-21
DICPCG:  Solving for p, Initial residual = 0.772332, Final residual = 9.53774e-07, No Iterations 395
linear solve p 133150
time step continuity errors : sum local = 7.32198e-10, global = -1.51434e-20, cumulative = -2.15038e-20
ExecutionTime = 0.47 s  ClockTime = 0 s

Time = 0.002

Courant Number mean: 0.0550579 max: 0.807874
DILUPBiCGStab:  Solving for Ux, Initial residual = 0.137027, Final residual = 0.00657434, No Iterations 5
DILUPBiCGStab:  Solving for Uy, Initial residual = 0.431779, Final residual = 0.0185169, No Iterations 5
DILUPBiCGStab:  Solving for Uz, Initial residual = 0.940927, Final residual = 0.0388568, No Iterations 5
linear solve U 16994
DICPCG:  Solving for p, Initial residual = 0.820007, Final residual = 9.43474e-07, No Iterations 395
linear solve p 160074
time step continuity errors : sum local = 1.07469e-09, global = 1.7348e-21, cumulative = -1.9769e-20
DICPCG:  Solving for p, Initial residual = 0.755776, Final residual = 9.36292e-07, No Iterations 394
linear solve p 143491
time step continuity errors : sum local = 1.09434e-09, global = -3.61631e-20, cumulative = -5.59322e-20
ExecutionTime = 0.82 s  ClockTime = 1 s

Time = 0.003

Courant Number mean: 0.0839658 max: 0.944024
DILUPBiCGStab:  Solving for Ux, Initial residual = 0.0643558, Final residual = 0.00235535, No Iterations 5
DILUPBiCGStab:  Solving for Uy, Initial residual = 0.225566, Final residual = 0.00619855, No Iterations 5
DILUPBiCGStab:  Solving for Uz, Initial residual = 0.722661, Final residual = 0.0266288, No Iterations 5
linear solve U 22237
DICPCG:  Solving for p, Initial residual = 0.842366, Final residual = 9.82659e-07, No Iterations 371
linear solve p 126194
time step continuity errors : sum local = 1.00329e-09, global = -1.5734e-20, cumulative = -7.16661e-20
DICPCG:  Solving for p, Initial residual = 0.806321, Final residual = 9.86676e-07, No Iterations 370
linear solve p 125394
time step continuity errors : sum local = 9.84653e-10, global = -3.32112e-20, cumulative = -1.04877e-19
ExecutionTime = 1.12 s  ClockTime = 1 s

End

Finalising parallel run
================================================================================
hash: 81e798e97cc553005348286d645e8711
/*---------------------------------------------------------------------------*\
| =========                 |                                                 |
| \\      /  F ield         | OpenFOAM: The Open Source CFD Toolbox           |
|  \\    /   O peration     | Version:  2112                                  |
|   \\  /    A nd           | Website:  www.openfoam.com                      |
|    \\/     M anipulation  |                                                 |
\*---------------------------------------------------------------------------*/
Build  : d44c8318f0-20220111 OPENFOAM=2112 version=v2112
Arch   : "LSB;label=32;scalar=64"
Exec   : icoFoam -parallel
Date   : Jan 30 2022
Time   : 10:14:55
Host   : hkn0017.localdomain
PID    : 1438954
I/O    : uncollated
Case   : /hkfs/home/project/hk-project-test-fine/eq4036/data/code/ogl_labbook/lidDrivenCavity/solver/Variation_mesh/200/Variation_matrix_solver/BiCGStab_DIC_DefaultOF/Variation_mpiRank/72/base
nProcs : 72
Hosts  :
(
    (hkn0017.localdomain 72)
)
Pstream initialized with:
    floatTransfer      : 0
    nProcsSimpleSum    : 0
    commsType          : nonBlocking
    polling iterations : 0
trapFpe: Floating point exception trapping enabled (FOAM_SIGFPE).
fileModificationChecking : Monitoring run-time modified files using timeStampMaster (fileModificationSkew 5, maxFileModificationPolls 20)
allowSystemOperations : Allowing user-supplied system call operations

// * * * * * * * * * * * * * * * * * * * * * * * * * * * * * * * * * * * * * //
Create time

Create mesh for time = 0


PISO: Operating solver in PISO mode

Reading transportProperties

Reading field p

Reading field U

Reading/calculating face flux field phi


Starting time loop

Time = 0.0005

Courant Number mean: 0 max: 0
DILUPBiCGStab:  Solving for Ux, Initial residual = 1, Final residual = 0.023463, No Iterations 5
DILUPBiCGStab:  Solving for Uy:  solution singularity
DILUPBiCGStab:  Solving for Uz:  solution singularity
linear solve U 192401
DICPBiCGStab:  Solving for p, Initial residual = 1, Final residual = 5.0416e-07, No Iterations 588
linear solve p 10026003
time step continuity errors : sum local = 1.0563e-10, global = -2.89258e-21, cumulative = -2.89258e-21
DICPBiCGStab:  Solving for p, Initial residual = 0.822224, Final residual = 7.67819e-07, No Iterations 501
linear solve p 8550718
time step continuity errors : sum local = 2.42066e-10, global = -4.86628e-22, cumulative = -3.37921e-21
ExecutionTime = 19.57 s  ClockTime = 20 s

Time = 0.001

Courant Number mean: 0.0388251 max: 0.866522
DILUPBiCGStab:  Solving for Ux, Initial residual = 0.11767, Final residual = 0.014654, No Iterations 5
DILUPBiCGStab:  Solving for Uy, Initial residual = 0.506609, Final residual = 0.0576253, No Iterations 5
DILUPBiCGStab:  Solving for Uz, Initial residual = 0.913324, Final residual = 0.109806, No Iterations 5
linear solve U 339809
DICPBiCGStab:  Solving for p, Initial residual = 0.908311, Final residual = 9.729e-07, No Iterations 507
linear solve p 8582888
time step continuity errors : sum local = 6.31785e-10, global = -6.96827e-21, cumulative = -1.03475e-20
DICPBiCGStab:  Solving for p, Initial residual = 0.856212, Final residual = 7.95686e-07, No Iterations 544
linear solve p 9323210
time step continuity errors : sum local = 4.6959e-10, global = -1.23214e-21, cumulative = -1.15796e-20
ExecutionTime = 38.01 s  ClockTime = 38 s

Time = 0.0015

Courant Number mean: 0.0609306 max: 1.02317
DILUPBiCGStab:  Solving for Ux, Initial residual = 0.0680784, Final residual = 0.00639626, No Iterations 5
DILUPBiCGStab:  Solving for Uy, Initial residual = 0.356001, Final residual = 0.0241814, No Iterations 5
DILUPBiCGStab:  Solving for Uz, Initial residual = 0.764873, Final residual = 0.0749211, No Iterations 5
linear solve U 339336
DICPBiCGStab:  Solving for p, Initial residual = 0.940389, Final residual = 9.13048e-07, No Iterations 614
linear solve p 10451682
time step continuity errors : sum local = 6.6363e-10, global = -4.39034e-21, cumulative = -1.597e-20
DICPBiCGStab:  Solving for p, Initial residual = 0.905527, Final residual = 9.93914e-07, No Iterations 296
linear solve p 5032761
time step continuity errors : sum local = 1.17242e-09, global = -3.48065e-21, cumulative = -1.94506e-20
ExecutionTime = 54.05 s  ClockTime = 55 s

End

Finalising parallel run
================================================================================
hash: 588606258860a3814324506cd38ad783
/*---------------------------------------------------------------------------*\
| =========                 |                                                 |
| \\      /  F ield         | OpenFOAM: The Open Source CFD Toolbox           |
|  \\    /   O peration     | Version:  2112                                  |
|   \\  /    A nd           | Website:  www.openfoam.com                      |
|    \\/     M anipulation  |                                                 |
\*---------------------------------------------------------------------------*/
Build  : d44c8318f0-20220111 OPENFOAM=2112 version=v2112
Arch   : "LSB;label=32;scalar=64"
Exec   : icoFoam -parallel
Date   : Jan 30 2022
Time   : 10:15:54
Host   : hkn0017.localdomain
PID    : 1440598
I/O    : uncollated
Case   : /hkfs/home/project/hk-project-test-fine/eq4036/data/code/ogl_labbook/lidDrivenCavity/solver/Variation_mesh/200/Variation_matrix_solver/BiCGStab_NoPrecond_DefaultOF/Variation_mpiRank/72/base
nProcs : 72
Hosts  :
(
    (hkn0017.localdomain 72)
)
Pstream initialized with:
    floatTransfer      : 0
    nProcsSimpleSum    : 0
    commsType          : nonBlocking
    polling iterations : 0
trapFpe: Floating point exception trapping enabled (FOAM_SIGFPE).
fileModificationChecking : Monitoring run-time modified files using timeStampMaster (fileModificationSkew 5, maxFileModificationPolls 20)
allowSystemOperations : Allowing user-supplied system call operations

// * * * * * * * * * * * * * * * * * * * * * * * * * * * * * * * * * * * * * //
Create time

Create mesh for time = 0


PISO: Operating solver in PISO mode

Reading transportProperties

Reading field p

Reading field U

Reading/calculating face flux field phi


Starting time loop

Time = 0.0005

Courant Number mean: 0 max: 0
DILUPBiCGStab:  Solving for Ux, Initial residual = 1, Final residual = 0.023463, No Iterations 5
DILUPBiCGStab:  Solving for Uy:  solution singularity
DILUPBiCGStab:  Solving for Uz:  solution singularity
linear solve U 192807
nonePBiCGStab:  Solving for p, Initial residual = 1, Final residual = 9.73913e-07, No Iterations 1463
linear solve p 15229642
time step continuity errors : sum local = 3.58319e-10, global = 3.82234e-21, cumulative = 3.82234e-21
nonePBiCGStab:  Solving for p, Initial residual = 0.822225, Final residual = 4.73119e-07, No Iterations 1375
linear solve p 14141579
time step continuity errors : sum local = 1.76003e-10, global = 7.95366e-22, cumulative = 4.6177e-21
ExecutionTime = 30.25 s  ClockTime = 30 s

Time = 0.001

Courant Number mean: 0.0388251 max: 0.866522
DILUPBiCGStab:  Solving for Ux, Initial residual = 0.117671, Final residual = 0.0146541, No Iterations 5
DILUPBiCGStab:  Solving for Uy, Initial residual = 0.506609, Final residual = 0.0576251, No Iterations 5
DILUPBiCGStab:  Solving for Uz, Initial residual = 0.913321, Final residual = 0.109803, No Iterations 5
linear solve U 339719
nonePBiCGStab:  Solving for p, Initial residual = 0.908312, Final residual = 8.22149e-07, No Iterations 1270
linear solve p 12975008
time step continuity errors : sum local = 8.45205e-10, global = -4.32241e-21, cumulative = 2.95297e-22
nonePBiCGStab:  Solving for p, Initial residual = 0.85621, Final residual = 9.32026e-07, No Iterations 1238
linear solve p 12730520
time step continuity errors : sum local = 1.08864e-09, global = -3.57435e-21, cumulative = -3.27905e-21
ExecutionTime = 56.45 s  ClockTime = 56 s

Time = 0.0015

Courant Number mean: 0.0609306 max: 1.02317
DILUPBiCGStab:  Solving for Ux, Initial residual = 0.0680772, Final residual = 0.00639584, No Iterations 5
DILUPBiCGStab:  Solving for Uy, Initial residual = 0.356003, Final residual = 0.024183, No Iterations 5
DILUPBiCGStab:  Solving for Uz, Initial residual = 0.764873, Final residual = 0.0749258, No Iterations 5
linear solve U 350181
nonePBiCGStab:  Solving for p, Initial residual = 0.940391, Final residual = 9.83728e-07, No Iterations 1379
linear solve p 14099579
time step continuity errors : sum local = 1.38034e-09, global = -5.11828e-21, cumulative = -8.39734e-21
nonePBiCGStab:  Solving for p, Initial residual = 0.905527, Final residual = 8.32717e-07, No Iterations 794
linear solve p 8096245
time step continuity errors : sum local = 6.25091e-10, global = -5.86929e-21, cumulative = -1.42666e-20
ExecutionTime = 79.17 s  ClockTime = 79 s

End

Finalising parallel run
================================================================================
hash: 310112b8ee0eef9cf327bb3f5d2f514a
/*---------------------------------------------------------------------------*\
| =========                 |                                                 |
| \\      /  F ield         | OpenFOAM: The Open Source CFD Toolbox           |
|  \\    /   O peration     | Version:  2112                                  |
|   \\  /    A nd           | Website:  www.openfoam.com                      |
|    \\/     M anipulation  |                                                 |
\*---------------------------------------------------------------------------*/
Build  : d44c8318f0-20220111 OPENFOAM=2112 version=v2112
Arch   : "LSB;label=32;scalar=64"
Exec   : icoFoam -parallel
Date   : Jan 30 2022
Time   : 10:17:17
Host   : hkn0017.localdomain
PID    : 1442292
I/O    : uncollated
Case   : /hkfs/home/project/hk-project-test-fine/eq4036/data/code/ogl_labbook/lidDrivenCavity/solver/Variation_mesh/200/Variation_matrix_solver/BiCGStab_GAMG_DefaultOF/Variation_mpiRank/72/base
nProcs : 72
Hosts  :
(
    (hkn0017.localdomain 72)
)
Pstream initialized with:
    floatTransfer      : 0
    nProcsSimpleSum    : 0
    commsType          : nonBlocking
    polling iterations : 0
trapFpe: Floating point exception trapping enabled (FOAM_SIGFPE).
fileModificationChecking : Monitoring run-time modified files using timeStampMaster (fileModificationSkew 5, maxFileModificationPolls 20)
allowSystemOperations : Allowing user-supplied system call operations

// * * * * * * * * * * * * * * * * * * * * * * * * * * * * * * * * * * * * * //
Create time

Create mesh for time = 0


PISO: Operating solver in PISO mode

Reading transportProperties

Reading field p

Reading field U

Reading/calculating face flux field phi


Starting time loop

Time = 0.0005

Courant Number mean: 0 max: 0
DILUPBiCGStab:  Solving for Ux, Initial residual = 1, Final residual = 0.023463, No Iterations 5
DILUPBiCGStab:  Solving for Uy:  solution singularity
DILUPBiCGStab:  Solving for Uz:  solution singularity
linear solve U 188284
GAMGPBiCGStab:  Solving for p, Initial residual = 1, Final residual = 1.49349e-07, No Iterations 14
linear solve p 5229408
time step continuity errors : sum local = 3.13027e-11, global = -2.11115e-21, cumulative = -2.11115e-21
GAMGPBiCGStab:  Solving for p, Initial residual = 0.822224, Final residual = 8.32788e-07, No Iterations 10
linear solve p 3658058
time step continuity errors : sum local = 2.10188e-10, global = -9.27595e-22, cumulative = -3.03875e-21
ExecutionTime = 9.84 s  ClockTime = 10 s

Time = 0.001

Courant Number mean: 0.0388251 max: 0.866522
DILUPBiCGStab:  Solving for Ux, Initial residual = 0.117669, Final residual = 0.0146538, No Iterations 5
DILUPBiCGStab:  Solving for Uy, Initial residual = 0.50661, Final residual = 0.0576255, No Iterations 5
DILUPBiCGStab:  Solving for Uz, Initial residual = 0.91333, Final residual = 0.109811, No Iterations 5
linear solve U 336492
GAMGPBiCGStab:  Solving for p, Initial residual = 0.908312, Final residual = 6.161e-07, No Iterations 10
linear solve p 3875580
time step continuity errors : sum local = 3.5269e-10, global = 2.33668e-21, cumulative = -7.02071e-22
GAMGPBiCGStab:  Solving for p, Initial residual = 0.856213, Final residual = 9.05706e-07, No Iterations 10
linear solve p 3862706
time step continuity errors : sum local = 5.31112e-10, global = -3.82297e-21, cumulative = -4.52504e-21
ExecutionTime = 18.15 s  ClockTime = 18 s

Time = 0.0015

Courant Number mean: 0.0609306 max: 1.02317
DILUPBiCGStab:  Solving for Ux, Initial residual = 0.068079, Final residual = 0.00639649, No Iterations 5
DILUPBiCGStab:  Solving for Uy, Initial residual = 0.356, Final residual = 0.0241804, No Iterations 5
DILUPBiCGStab:  Solving for Uz, Initial residual = 0.764865, Final residual = 0.0749114, No Iterations 5
linear solve U 362152
GAMGPBiCGStab:  Solving for p, Initial residual = 0.940389, Final residual = 3.74683e-07, No Iterations 11
linear solve p 4020231
time step continuity errors : sum local = 2.62943e-10, global = -2.56013e-21, cumulative = -7.08517e-21
GAMGPBiCGStab:  Solving for p, Initial residual = 0.905528, Final residual = 8.47344e-07, No Iterations 11
linear solve p 4300065
time step continuity errors : sum local = 5.90488e-10, global = -3.32803e-21, cumulative = -1.04132e-20
ExecutionTime = 27.09 s  ClockTime = 27 s

End

Finalising parallel run
================================================================================
hash: 2e84c7bbf669d4c1591b22169fbd0545
/*---------------------------------------------------------------------------*\
| =========                 |                                                 |
| \\      /  F ield         | OpenFOAM: The Open Source CFD Toolbox           |
|  \\    /   O peration     | Version:  2112                                  |
|   \\  /    A nd           | Website:  www.openfoam.com                      |
|    \\/     M anipulation  |                                                 |
\*---------------------------------------------------------------------------*/
Build  : d44c8318f0-20220111 OPENFOAM=2112 version=v2112
Arch   : "LSB;label=32;scalar=64"
Exec   : icoFoam -parallel
Date   : Jan 30 2022
Time   : 10:17:47
Host   : hkn0017.localdomain
PID    : 1443913
I/O    : uncollated
Case   : /hkfs/home/project/hk-project-test-fine/eq4036/data/code/ogl_labbook/lidDrivenCavity/solver/Variation_mesh/200/Variation_matrix_solver/CG_NoPrecond_DefaultOF/Variation_mpiRank/72/base
nProcs : 72
Hosts  :
(
    (hkn0017.localdomain 72)
)
Pstream initialized with:
    floatTransfer      : 0
    nProcsSimpleSum    : 0
    commsType          : nonBlocking
    polling iterations : 0
trapFpe: Floating point exception trapping enabled (FOAM_SIGFPE).
fileModificationChecking : Monitoring run-time modified files using timeStampMaster (fileModificationSkew 5, maxFileModificationPolls 20)
allowSystemOperations : Allowing user-supplied system call operations

// * * * * * * * * * * * * * * * * * * * * * * * * * * * * * * * * * * * * * //
Create time

Create mesh for time = 0


PISO: Operating solver in PISO mode

Reading transportProperties

Reading field p

Reading field U

Reading/calculating face flux field phi


Starting time loop

Time = 0.0005

Courant Number mean: 0 max: 0
DILUPBiCGStab:  Solving for Ux, Initial residual = 1, Final residual = 0.023463, No Iterations 5
DILUPBiCGStab:  Solving for Uy:  solution singularity
DILUPBiCGStab:  Solving for Uz:  solution singularity
linear solve U 189848
nonePCG:  Solving for p, Initial residual = 1, Final residual = 9.99527e-07, No Iterations 1734
linear solve p 6954339
time step continuity errors : sum local = 2.09046e-10, global = 5.01314e-21, cumulative = 5.01314e-21
nonePCG:  Solving for p, Initial residual = 0.822223, Final residual = 9.98395e-07, No Iterations 1727
linear solve p 6976317
time step continuity errors : sum local = 2.50489e-10, global = -1.99652e-21, cumulative = 3.01662e-21
ExecutionTime = 14.86 s  ClockTime = 16 s

Time = 0.001

Courant Number mean: 0.0388251 max: 0.866522
DILUPBiCGStab:  Solving for Ux, Initial residual = 0.117669, Final residual = 0.0146538, No Iterations 5
DILUPBiCGStab:  Solving for Uy, Initial residual = 0.50661, Final residual = 0.0576255, No Iterations 5
DILUPBiCGStab:  Solving for Uz, Initial residual = 0.91333, Final residual = 0.10981, No Iterations 5
linear solve U 345295
nonePCG:  Solving for p, Initial residual = 0.908312, Final residual = 9.72853e-07, No Iterations 1715
linear solve p 6946306
time step continuity errors : sum local = 5.56884e-10, global = -2.58029e-21, cumulative = 4.36328e-22
nonePCG:  Solving for p, Initial residual = 0.856213, Final residual = 9.93778e-07, No Iterations 1711
linear solve p 6917879
time step continuity errors : sum local = 5.80391e-10, global = -8.25626e-23, cumulative = 3.53765e-22
ExecutionTime = 29.27 s  ClockTime = 30 s

Time = 0.0015

Courant Number mean: 0.0609306 max: 1.02317
DILUPBiCGStab:  Solving for Ux, Initial residual = 0.068079, Final residual = 0.00639649, No Iterations 5
DILUPBiCGStab:  Solving for Uy, Initial residual = 0.356, Final residual = 0.0241804, No Iterations 5
DILUPBiCGStab:  Solving for Uz, Initial residual = 0.764867, Final residual = 0.0749113, No Iterations 5
linear solve U 335903
nonePCG:  Solving for p, Initial residual = 0.940389, Final residual = 9.68677e-07, No Iterations 1716
linear solve p 6908002
time step continuity errors : sum local = 6.79606e-10, global = -4.26625e-22, cumulative = -7.28593e-23
nonePCG:  Solving for p, Initial residual = 0.905528, Final residual = 9.94799e-07, No Iterations 1714
linear solve p 6809916
time step continuity errors : sum local = 6.9201e-10, global = -1.85224e-21, cumulative = -1.9251e-21
ExecutionTime = 43.52 s  ClockTime = 44 s

End

Finalising parallel run
================================================================================
hash: c0ab76d50edf420513f9b6745d2b64cb
/*---------------------------------------------------------------------------*\
| =========                 |                                                 |
| \\      /  F ield         | OpenFOAM: The Open Source CFD Toolbox           |
|  \\    /   O peration     | Version:  2112                                  |
|   \\  /    A nd           | Website:  www.openfoam.com                      |
|    \\/     M anipulation  |                                                 |
\*---------------------------------------------------------------------------*/
Build  : d44c8318f0-20220111 OPENFOAM=2112 version=v2112
Arch   : "LSB;label=32;scalar=64"
Exec   : icoFoam -parallel
Date   : Jan 30 2022
Time   : 10:18:35
Host   : hkn0017.localdomain
PID    : 1445549
I/O    : uncollated
Case   : /hkfs/home/project/hk-project-test-fine/eq4036/data/code/ogl_labbook/lidDrivenCavity/solver/Variation_mesh/200/Variation_matrix_solver/CG_GAMG_DefaultOF/Variation_mpiRank/72/base
nProcs : 72
Hosts  :
(
    (hkn0017.localdomain 72)
)
Pstream initialized with:
    floatTransfer      : 0
    nProcsSimpleSum    : 0
    commsType          : nonBlocking
    polling iterations : 0
trapFpe: Floating point exception trapping enabled (FOAM_SIGFPE).
fileModificationChecking : Monitoring run-time modified files using timeStampMaster (fileModificationSkew 5, maxFileModificationPolls 20)
allowSystemOperations : Allowing user-supplied system call operations

// * * * * * * * * * * * * * * * * * * * * * * * * * * * * * * * * * * * * * //
Create time

Create mesh for time = 0


PISO: Operating solver in PISO mode

Reading transportProperties

Reading field p

Reading field U

Reading/calculating face flux field phi


Starting time loop

Time = 0.0005

Courant Number mean: 0 max: 0
DILUPBiCGStab:  Solving for Ux, Initial residual = 1, Final residual = 0.023463, No Iterations 5
DILUPBiCGStab:  Solving for Uy:  solution singularity
DILUPBiCGStab:  Solving for Uz:  solution singularity
linear solve U 186853
GAMGPCG:  Solving for p, Initial residual = 1, Final residual = 4.30657e-07, No Iterations 17
linear solve p 3298887
time step continuity errors : sum local = 9.00748e-11, global = 6.56006e-21, cumulative = 6.56006e-21
GAMGPCG:  Solving for p, Initial residual = 0.822224, Final residual = 6.64033e-07, No Iterations 15
linear solve p 2866023
time step continuity errors : sum local = 1.66677e-10, global = -2.21856e-21, cumulative = 4.3415e-21
ExecutionTime = 7.13 s  ClockTime = 7 s

Time = 0.001

Courant Number mean: 0.0388251 max: 0.866522
DILUPBiCGStab:  Solving for Ux, Initial residual = 0.117669, Final residual = 0.0146538, No Iterations 5
DILUPBiCGStab:  Solving for Uy, Initial residual = 0.50661, Final residual = 0.0576255, No Iterations 5
DILUPBiCGStab:  Solving for Uz, Initial residual = 0.913329, Final residual = 0.10981, No Iterations 5
linear solve U 337606
GAMGPCG:  Solving for p, Initial residual = 0.908312, Final residual = 6.40765e-07, No Iterations 20
linear solve p 3795902
time step continuity errors : sum local = 3.67022e-10, global = 9.69552e-22, cumulative = 5.31105e-21
GAMGPCG:  Solving for p, Initial residual = 0.856213, Final residual = 6.33506e-07, No Iterations 16
linear solve p 3192805
time step continuity errors : sum local = 3.702e-10, global = -4.44507e-21, cumulative = 8.65981e-22
ExecutionTime = 14.72 s  ClockTime = 15 s

Time = 0.0015

Courant Number mean: 0.0609306 max: 1.02317
DILUPBiCGStab:  Solving for Ux, Initial residual = 0.068079, Final residual = 0.00639651, No Iterations 5
DILUPBiCGStab:  Solving for Uy, Initial residual = 0.356001, Final residual = 0.0241804, No Iterations 5
DILUPBiCGStab:  Solving for Uz, Initial residual = 0.764866, Final residual = 0.0749115, No Iterations 5
linear solve U 351594
GAMGPCG:  Solving for p, Initial residual = 0.940389, Final residual = 9.36534e-07, No Iterations 15
linear solve p 2881858
time step continuity errors : sum local = 6.57058e-10, global = -1.46376e-21, cumulative = -5.97777e-22
GAMGPCG:  Solving for p, Initial residual = 0.905528, Final residual = 3.64441e-07, No Iterations 16
linear solve p 3129720
time step continuity errors : sum local = 2.54104e-10, global = 9.17813e-22, cumulative = 3.20036e-22
ExecutionTime = 21.34 s  ClockTime = 21 s

End

Finalising parallel run
================================================================================
hash: 70457572b620b4598a050836caef6b83
/*---------------------------------------------------------------------------*\
| =========                 |                                                 |
| \\      /  F ield         | OpenFOAM: The Open Source CFD Toolbox           |
|  \\    /   O peration     | Version:  2112                                  |
|   \\  /    A nd           | Website:  www.openfoam.com                      |
|    \\/     M anipulation  |                                                 |
\*---------------------------------------------------------------------------*/
Build  : d44c8318f0-20220111 OPENFOAM=2112 version=v2112
Arch   : "LSB;label=32;scalar=64"
Exec   : icoFoam -parallel
Date   : Jan 30 2022
Time   : 10:19:00
Host   : hkn0017.localdomain
PID    : 1447165
I/O    : uncollated
Case   : /hkfs/home/project/hk-project-test-fine/eq4036/data/code/ogl_labbook/lidDrivenCavity/solver/Variation_mesh/200/Variation_matrix_solver/CG_DIC_DefaultOF/Variation_mpiRank/72/base
nProcs : 72
Hosts  :
(
    (hkn0017.localdomain 72)
)
Pstream initialized with:
    floatTransfer      : 0
    nProcsSimpleSum    : 0
    commsType          : nonBlocking
    polling iterations : 0
trapFpe: Floating point exception trapping enabled (FOAM_SIGFPE).
fileModificationChecking : Monitoring run-time modified files using timeStampMaster (fileModificationSkew 5, maxFileModificationPolls 20)
allowSystemOperations : Allowing user-supplied system call operations

// * * * * * * * * * * * * * * * * * * * * * * * * * * * * * * * * * * * * * //
Create time

Create mesh for time = 0


PISO: Operating solver in PISO mode

Reading transportProperties

Reading field p

Reading field U

Reading/calculating face flux field phi


Starting time loop

Time = 0.0005

Courant Number mean: 0 max: 0
DILUPBiCGStab:  Solving for Ux, Initial residual = 1, Final residual = 0.023463, No Iterations 5
DILUPBiCGStab:  Solving for Uy:  solution singularity
DILUPBiCGStab:  Solving for Uz:  solution singularity
linear solve U 197820
DICPCG:  Solving for p, Initial residual = 1, Final residual = 9.77925e-07, No Iterations 783
linear solve p 6090487
time step continuity errors : sum local = 2.0453e-10, global = 1.71021e-21, cumulative = 1.71021e-21
DICPCG:  Solving for p, Initial residual = 0.822223, Final residual = 9.52659e-07, No Iterations 779
linear solve p 6102458
time step continuity errors : sum local = 2.3902e-10, global = 1.73091e-21, cumulative = 3.44112e-21
ExecutionTime = 13.17 s  ClockTime = 13 s

Time = 0.001

Courant Number mean: 0.0388251 max: 0.866522
DILUPBiCGStab:  Solving for Ux, Initial residual = 0.117669, Final residual = 0.0146538, No Iterations 5
DILUPBiCGStab:  Solving for Uy, Initial residual = 0.50661, Final residual = 0.0576255, No Iterations 5
DILUPBiCGStab:  Solving for Uz, Initial residual = 0.91333, Final residual = 0.109811, No Iterations 5
linear solve U 359083
DICPCG:  Solving for p, Initial residual = 0.908312, Final residual = 9.73634e-07, No Iterations 757
linear solve p 5972414
time step continuity errors : sum local = 5.57341e-10, global = -1.57262e-21, cumulative = 1.8685e-21
DICPCG:  Solving for p, Initial residual = 0.856213, Final residual = 9.76742e-07, No Iterations 755
linear solve p 5894421
time step continuity errors : sum local = 5.70452e-10, global = -1.42409e-21, cumulative = 4.44411e-22
ExecutionTime = 25.61 s  ClockTime = 26 s

Time = 0.0015

Courant Number mean: 0.0609306 max: 1.02317
DILUPBiCGStab:  Solving for Ux, Initial residual = 0.068079, Final residual = 0.0063965, No Iterations 5
DILUPBiCGStab:  Solving for Uy, Initial residual = 0.356001, Final residual = 0.0241805, No Iterations 5
DILUPBiCGStab:  Solving for Uz, Initial residual = 0.764865, Final residual = 0.0749115, No Iterations 5
linear solve U 341429
DICPCG:  Solving for p, Initial residual = 0.940389, Final residual = 9.75135e-07, No Iterations 751
linear solve p 5862070
time step continuity errors : sum local = 6.84165e-10, global = -7.17792e-22, cumulative = -2.73381e-22
DICPCG:  Solving for p, Initial residual = 0.905528, Final residual = 9.88246e-07, No Iterations 750
linear solve p 5873491
time step continuity errors : sum local = 6.87475e-10, global = 2.45523e-21, cumulative = 2.18185e-21
ExecutionTime = 37.91 s  ClockTime = 38 s

End

Finalising parallel run
================================================================================
hash: 172cc39fdcf6f40e5d83e19457178566
/*---------------------------------------------------------------------------*\
| =========                 |                                                 |
| \\      /  F ield         | OpenFOAM: The Open Source CFD Toolbox           |
|  \\    /   O peration     | Version:  2112                                  |
|   \\  /    A nd           | Website:  www.openfoam.com                      |
|    \\/     M anipulation  |                                                 |
\*---------------------------------------------------------------------------*/
Build  : d44c8318f0-20220111 OPENFOAM=2112 version=v2112
Arch   : "LSB;label=32;scalar=64"
Exec   : icoFoam -parallel
Date   : Jan 30 2022
Time   : 10:14:46
Host   : hkn0001.localdomain
PID    : 463207
I/O    : uncollated
Case   : /hkfs/home/project/hk-project-test-fine/eq4036/data/code/ogl_labbook/lidDrivenCavity/solver/Variation_mesh/300/Variation_matrix_solver/BiCGStab_DIC_DefaultOF/Variation_mpiRank/72/base
nProcs : 72
Hosts  :
(
    (hkn0001.localdomain 72)
)
Pstream initialized with:
    floatTransfer      : 0
    nProcsSimpleSum    : 0
    commsType          : nonBlocking
    polling iterations : 0
trapFpe: Floating point exception trapping enabled (FOAM_SIGFPE).
fileModificationChecking : Monitoring run-time modified files using timeStampMaster (fileModificationSkew 5, maxFileModificationPolls 20)
allowSystemOperations : Allowing user-supplied system call operations

// * * * * * * * * * * * * * * * * * * * * * * * * * * * * * * * * * * * * * //
Create time

Create mesh for time = 0


PISO: Operating solver in PISO mode

Reading transportProperties

Reading field p

Reading field U

Reading/calculating face flux field phi


Starting time loop

Time = 0.000333333

Courant Number mean: 0 max: 0
DILUPBiCGStab:  Solving for Ux, Initial residual = 1, Final residual = 0.0306566, No Iterations 5
DILUPBiCGStab:  Solving for Uy:  solution singularity
DILUPBiCGStab:  Solving for Uz:  solution singularity
linear solve U 639581
DICPBiCGStab:  Solving for p, Initial residual = 1, Final residual = 8.08042e-07, No Iterations 912
linear solve p 57558496
time step continuity errors : sum local = 8.73137e-11, global = 3.29049e-21, cumulative = 3.29049e-21
DICPBiCGStab:  Solving for p, Initial residual = 0.836485, Final residual = 8.25234e-07, No Iterations 782
linear solve p 49146273
time step continuity errors : sum local = 1.31456e-10, global = -1.23701e-21, cumulative = 2.05349e-21
ExecutionTime = 109.67 s  ClockTime = 110 s

Time = 0.000666667

Courant Number mean: 0.0300976 max: 0.891629
DILUPBiCGStab:  Solving for Ux, Initial residual = 0.106153, Final residual = 0.019955, No Iterations 5
DILUPBiCGStab:  Solving for Uy, Initial residual = 0.546985, Final residual = 0.0971072, No Iterations 5
DILUPBiCGStab:  Solving for Uz, Initial residual = 0.886059, Final residual = 0.171852, No Iterations 5
linear solve U 1235643
DICPBiCGStab:  Solving for p, Initial residual = 0.933602, Final residual = 6.50795e-07, No Iterations 881
linear solve p 55274971
time step continuity errors : sum local = 2.30904e-10, global = -1.02476e-21, cumulative = 1.02872e-21
DICPBiCGStab:  Solving for p, Initial residual = 0.884951, Final residual = 9.3506e-07, No Iterations 894
linear solve p 55809704
time step continuity errors : sum local = 3.41258e-10, global = -1.61283e-21, cumulative = -5.84106e-22
ExecutionTime = 222.53 s  ClockTime = 223 s

Time = 0.001

Courant Number mean: 0.0482101 max: 1.073
DILUPBiCGStab:  Solving for Ux, Initial residual = 0.0660439, Final residual = 0.00975847, No Iterations 5
DILUPBiCGStab:  Solving for Uy, Initial residual = 0.414725, Final residual = 0.0445332, No Iterations 5
DILUPBiCGStab:  Solving for Uz, Initial residual = 0.788364, Final residual = 0.116716, No Iterations 5
linear solve U 1242775
DICPBiCGStab:  Solving for p, Initial residual = 0.962193, Final residual = 8.7897e-07, No Iterations 914
linear solve p 57485481
time step continuity errors : sum local = 4.49788e-10, global = -4.95224e-21, cumulative = -5.53635e-21
DICPBiCGStab:  Solving for p, Initial residual = 0.925151, Final residual = 6.98381e-07, No Iterations 776
linear solve p 49120478
time step continuity errors : sum local = 4.08381e-10, global = -4.45468e-21, cumulative = -9.99103e-21
ExecutionTime = 330.98 s  ClockTime = 332 s

End

Finalising parallel run
================================================================================
hash: eaa2c813f2a86c6f942fd315d9d007aa
/*---------------------------------------------------------------------------*\
| =========                 |                                                 |
| \\      /  F ield         | OpenFOAM: The Open Source CFD Toolbox           |
|  \\    /   O peration     | Version:  2112                                  |
|   \\  /    A nd           | Website:  www.openfoam.com                      |
|    \\/     M anipulation  |                                                 |
\*---------------------------------------------------------------------------*/
Build  : d44c8318f0-20220111 OPENFOAM=2112 version=v2112
Arch   : "LSB;label=32;scalar=64"
Exec   : icoFoam -parallel
Date   : Jan 30 2022
Time   : 10:20:22
Host   : hkn0001.localdomain
PID    : 466787
I/O    : uncollated
Case   : /hkfs/home/project/hk-project-test-fine/eq4036/data/code/ogl_labbook/lidDrivenCavity/solver/Variation_mesh/300/Variation_matrix_solver/BiCGStab_NoPrecond_DefaultOF/Variation_mpiRank/72/base
nProcs : 72
Hosts  :
(
    (hkn0001.localdomain 72)
)
Pstream initialized with:
    floatTransfer      : 0
    nProcsSimpleSum    : 0
    commsType          : nonBlocking
    polling iterations : 0
trapFpe: Floating point exception trapping enabled (FOAM_SIGFPE).
fileModificationChecking : Monitoring run-time modified files using timeStampMaster (fileModificationSkew 5, maxFileModificationPolls 20)
allowSystemOperations : Allowing user-supplied system call operations

// * * * * * * * * * * * * * * * * * * * * * * * * * * * * * * * * * * * * * //
Create time

Create mesh for time = 0


PISO: Operating solver in PISO mode

Reading transportProperties

Reading field p

Reading field U

Reading/calculating face flux field phi


Starting time loop

Time = 0.000333333

Courant Number mean: 0 max: 0
DILUPBiCGStab:  Solving for Ux, Initial residual = 1, Final residual = 0.0306566, No Iterations 5
DILUPBiCGStab:  Solving for Uy:  solution singularity
DILUPBiCGStab:  Solving for Uz:  solution singularity
linear solve U 616731
nonePBiCGStab:  Solving for p, Initial residual = 1, Final residual = 5.7604e-07, No Iterations 2089
linear solve p 81133496
time step continuity errors : sum local = 1.0327e-10, global = 4.85364e-21, cumulative = 4.85364e-21
nonePBiCGStab:  Solving for p, Initial residual = 0.836487, Final residual = 9.62796e-07, No Iterations 2136
linear solve p 82747516
time step continuity errors : sum local = 2.3897e-10, global = -2.13124e-21, cumulative = 2.7224e-21
ExecutionTime = 166.47 s  ClockTime = 167 s

Time = 0.000666667

Courant Number mean: 0.0300977 max: 0.891629
DILUPBiCGStab:  Solving for Ux, Initial residual = 0.10616, Final residual = 0.0199577, No Iterations 5
DILUPBiCGStab:  Solving for Uy, Initial residual = 0.546984, Final residual = 0.0971074, No Iterations 5
DILUPBiCGStab:  Solving for Uz, Initial residual = 0.886093, Final residual = 0.171905, No Iterations 5
linear solve U 1245917
nonePBiCGStab:  Solving for p, Initial residual = 0.933598, Final residual = 8.53251e-07, No Iterations 2396
linear solve p 92283882
time step continuity errors : sum local = 5.30239e-10, global = -2.78357e-21, cumulative = -6.1164e-23
nonePBiCGStab:  Solving for p, Initial residual = 0.884939, Final residual = 9.281e-07, No Iterations 2340
linear solve p 90246098
time step continuity errors : sum local = 6.70592e-10, global = -1.26729e-21, cumulative = -1.32846e-21
ExecutionTime = 350.48 s  ClockTime = 352 s

Time = 0.001

Courant Number mean: 0.0482103 max: 1.073
DILUPBiCGStab:  Solving for Ux, Initial residual = 0.0660478, Final residual = 0.00975932, No Iterations 5
DILUPBiCGStab:  Solving for Uy, Initial residual = 0.414725, Final residual = 0.0445335, No Iterations 5
DILUPBiCGStab:  Solving for Uz, Initial residual = 0.788255, Final residual = 0.116655, No Iterations 5
linear solve U 1236810
nonePBiCGStab:  Solving for p, Initial residual = 0.96219, Final residual = 9.48779e-07, No Iterations 2336
linear solve p 89824451
time step continuity errors : sum local = 5.15523e-10, global = -4.63295e-21, cumulative = -5.9614e-21
nonePBiCGStab:  Solving for p, Initial residual = 0.925152, Final residual = 8.35922e-07, No Iterations 2414
linear solve p 93123526
time step continuity errors : sum local = 5.71836e-10, global = -2.79883e-21, cumulative = -8.76024e-21
ExecutionTime = 534.93 s  ClockTime = 537 s

End

Finalising parallel run
================================================================================
hash: 566e05f73b98874cd8a046764ca8a5ba
/*---------------------------------------------------------------------------*\
| =========                 |                                                 |
| \\      /  F ield         | OpenFOAM: The Open Source CFD Toolbox           |
|  \\    /   O peration     | Version:  2112                                  |
|   \\  /    A nd           | Website:  www.openfoam.com                      |
|    \\/     M anipulation  |                                                 |
\*---------------------------------------------------------------------------*/
Build  : d44c8318f0-20220111 OPENFOAM=2112 version=v2112
Arch   : "LSB;label=32;scalar=64"
Exec   : icoFoam -parallel
Date   : Jan 30 2022
Time   : 10:29:29
Host   : hkn0001.localdomain
PID    : 473076
I/O    : uncollated
Case   : /hkfs/home/project/hk-project-test-fine/eq4036/data/code/ogl_labbook/lidDrivenCavity/solver/Variation_mesh/300/Variation_matrix_solver/CG_NoPrecond_DefaultOF/Variation_mpiRank/72/base
nProcs : 72
Hosts  :
(
    (hkn0001.localdomain 72)
)
Pstream initialized with:
    floatTransfer      : 0
    nProcsSimpleSum    : 0
    commsType          : nonBlocking
    polling iterations : 0
trapFpe: Floating point exception trapping enabled (FOAM_SIGFPE).
fileModificationChecking : Monitoring run-time modified files using timeStampMaster (fileModificationSkew 5, maxFileModificationPolls 20)
allowSystemOperations : Allowing user-supplied system call operations

// * * * * * * * * * * * * * * * * * * * * * * * * * * * * * * * * * * * * * //
Create time

Create mesh for time = 0


PISO: Operating solver in PISO mode

Reading transportProperties

Reading field p

Reading field U

Reading/calculating face flux field phi


Starting time loop

Time = 0.000333333

Courant Number mean: 0 max: 0
DILUPBiCGStab:  Solving for Ux, Initial residual = 1, Final residual = 0.0306566, No Iterations 5
DILUPBiCGStab:  Solving for Uy:  solution singularity
DILUPBiCGStab:  Solving for Uz:  solution singularity
linear solve U 632157
nonePCG:  Solving for p, Initial residual = 1, Final residual = 9.96591e-07, No Iterations 2646
linear solve p 53734876
time step continuity errors : sum local = 1.0659e-10, global = 1.53203e-21, cumulative = 1.53203e-21
nonePCG:  Solving for p, Initial residual = 0.836485, Final residual = 9.75979e-07, No Iterations 2635
linear solve p 51967964
time step continuity errors : sum local = 1.23377e-10, global = -1.64674e-21, cumulative = -1.14715e-22
ExecutionTime = 108.64 s  ClockTime = 109 s

Time = 0.000666667

Courant Number mean: 0.0300976 max: 0.891629
DILUPBiCGStab:  Solving for Ux, Initial residual = 0.106154, Final residual = 0.0199554, No Iterations 5
DILUPBiCGStab:  Solving for Uy, Initial residual = 0.546985, Final residual = 0.0971072, No Iterations 5
DILUPBiCGStab:  Solving for Uz, Initial residual = 0.886065, Final residual = 0.171856, No Iterations 5
linear solve U 1241252
nonePCG:  Solving for p, Initial residual = 0.933602, Final residual = 9.72577e-07, No Iterations 2603
linear solve p 52229057
time step continuity errors : sum local = 3.44671e-10, global = -2.23027e-21, cumulative = -2.34498e-21
nonePCG:  Solving for p, Initial residual = 0.884949, Final residual = 9.85828e-07, No Iterations 2600
linear solve p 51550647
time step continuity errors : sum local = 3.56354e-10, global = -3.95792e-21, cumulative = -6.3029e-21
ExecutionTime = 214.23 s  ClockTime = 215 s

Time = 0.001

Courant Number mean: 0.0482101 max: 1.073
DILUPBiCGStab:  Solving for Ux, Initial residual = 0.0660435, Final residual = 0.00975822, No Iterations 5
DILUPBiCGStab:  Solving for Uy, Initial residual = 0.414725, Final residual = 0.0445331, No Iterations 5
DILUPBiCGStab:  Solving for Uz, Initial residual = 0.788268, Final residual = 0.116659, No Iterations 5
linear solve U 1238334
nonePCG:  Solving for p, Initial residual = 0.962193, Final residual = 9.76499e-07, No Iterations 2616
linear solve p 51576625
time step continuity errors : sum local = 4.99213e-10, global = -2.51948e-21, cumulative = -8.82238e-21
nonePCG:  Solving for p, Initial residual = 0.925151, Final residual = 9.78568e-07, No Iterations 2614
linear solve p 51684026
time step continuity errors : sum local = 4.99851e-10, global = -3.22361e-21, cumulative = -1.2046e-20
ExecutionTime = 319.31 s  ClockTime = 320 s

End

Finalising parallel run
================================================================================
hash: 1f9bd66c203a80e15fa308fdd9067261
/*---------------------------------------------------------------------------*\
| =========                 |                                                 |
| \\      /  F ield         | OpenFOAM: The Open Source CFD Toolbox           |
|  \\    /   O peration     | Version:  2112                                  |
|   \\  /    A nd           | Website:  www.openfoam.com                      |
|    \\/     M anipulation  |                                                 |
\*---------------------------------------------------------------------------*/
Build  : d44c8318f0-20220111 OPENFOAM=2112 version=v2112
Arch   : "LSB;label=32;scalar=64"
Exec   : icoFoam -parallel
Date   : Jan 30 2022
Time   : 10:34:59
Host   : hkn0001.localdomain
PID    : 478142
I/O    : uncollated
Case   : /hkfs/home/project/hk-project-test-fine/eq4036/data/code/ogl_labbook/lidDrivenCavity/solver/Variation_mesh/300/Variation_matrix_solver/CG_DIC_DefaultOF/Variation_mpiRank/72/base
nProcs : 72
Hosts  :
(
    (hkn0001.localdomain 72)
)
Pstream initialized with:
    floatTransfer      : 0
    nProcsSimpleSum    : 0
    commsType          : nonBlocking
    polling iterations : 0
trapFpe: Floating point exception trapping enabled (FOAM_SIGFPE).
fileModificationChecking : Monitoring run-time modified files using timeStampMaster (fileModificationSkew 5, maxFileModificationPolls 20)
allowSystemOperations : Allowing user-supplied system call operations

// * * * * * * * * * * * * * * * * * * * * * * * * * * * * * * * * * * * * * //
Create time

Create mesh for time = 0


PISO: Operating solver in PISO mode

Reading transportProperties

Reading field p

Reading field U

Reading/calculating face flux field phi


Starting time loop

Time = 0.000333333

Courant Number mean: 0 max: 0
DILUPBiCGStab:  Solving for Ux, Initial residual = 1, Final residual = 0.0306566, No Iterations 5
DILUPBiCGStab:  Solving for Uy:  solution singularity
DILUPBiCGStab:  Solving for Uz:  solution singularity
linear solve U 622762
DICPCG:  Solving for p, Initial residual = 1, Final residual = 9.81911e-07, No Iterations 1183
linear solve p 38015281
time step continuity errors : sum local = 1.0502e-10, global = -6.4784e-22, cumulative = -6.4784e-22
DICPCG:  Solving for p, Initial residual = 0.836485, Final residual = 9.91975e-07, No Iterations 1179
linear solve p 37800294
time step continuity errors : sum local = 1.254e-10, global = -2.33594e-21, cumulative = -2.98378e-21
ExecutionTime = 78.82 s  ClockTime = 79 s

Time = 0.000666667

Courant Number mean: 0.0300976 max: 0.891629
DILUPBiCGStab:  Solving for Ux, Initial residual = 0.106154, Final residual = 0.0199554, No Iterations 5
DILUPBiCGStab:  Solving for Uy, Initial residual = 0.546985, Final residual = 0.0971072, No Iterations 5
DILUPBiCGStab:  Solving for Uz, Initial residual = 0.886063, Final residual = 0.171854, No Iterations 5
linear solve U 1236323
DICPCG:  Solving for p, Initial residual = 0.933602, Final residual = 9.65657e-07, No Iterations 1137
linear solve p 36523076
time step continuity errors : sum local = 3.42235e-10, global = -7.40922e-22, cumulative = -3.7247e-21
DICPCG:  Solving for p, Initial residual = 0.884949, Final residual = 9.99973e-07, No Iterations 1135
linear solve p 36518156
time step continuity errors : sum local = 3.61484e-10, global = -2.23284e-21, cumulative = -5.95754e-21
ExecutionTime = 153.78 s  ClockTime = 155 s

Time = 0.001

Courant Number mean: 0.0482101 max: 1.073
DILUPBiCGStab:  Solving for Ux, Initial residual = 0.0660436, Final residual = 0.00975823, No Iterations 5
DILUPBiCGStab:  Solving for Uy, Initial residual = 0.414725, Final residual = 0.0445332, No Iterations 5
DILUPBiCGStab:  Solving for Uz, Initial residual = 0.788271, Final residual = 0.116662, No Iterations 5
linear solve U 1238735
DICPCG:  Solving for p, Initial residual = 0.962193, Final residual = 9.95466e-07, No Iterations 1056
linear solve p 33920880
time step continuity errors : sum local = 5.0891e-10, global = -3.55193e-21, cumulative = -9.50946e-21
DICPCG:  Solving for p, Initial residual = 0.925151, Final residual = 9.85675e-07, No Iterations 1055
linear solve p 33989055
time step continuity errors : sum local = 5.03482e-10, global = -4.72259e-21, cumulative = -1.42321e-20
ExecutionTime = 223.62 s  ClockTime = 225 s

End

Finalising parallel run
================================================================================
hash: ba81485ffa00e65dc7b26666c6211664
/*---------------------------------------------------------------------------*\
| =========                 |                                                 |
| \\      /  F ield         | OpenFOAM: The Open Source CFD Toolbox           |
|  \\    /   O peration     | Version:  2112                                  |
|   \\  /    A nd           | Website:  www.openfoam.com                      |
|    \\/     M anipulation  |                                                 |
\*---------------------------------------------------------------------------*/
Build  : d44c8318f0-20220111 OPENFOAM=2112 version=v2112
Arch   : "LSB;label=32;scalar=64"
Exec   : icoFoam -parallel
Date   : Jan 30 2022
Time   : 20:51:37
Host   : hkn1211.localdomain
PID    : 1792099
I/O    : uncollated
Case   : /hkfs/home/project/hk-project-test-fine/eq4036/data/code/ogl_labbook/lidDrivenCavity/solver/Variation_mesh/100/Variation_matrix_solver/CG_GAMG_DefaultOF/Variation_mpiRank/72/base
nProcs : 72
Hosts  :
(
    (hkn1211.localdomain 72)
)
Pstream initialized with:
    floatTransfer      : 0
    nProcsSimpleSum    : 0
    commsType          : nonBlocking
    polling iterations : 0
trapFpe: Floating point exception trapping enabled (FOAM_SIGFPE).
fileModificationChecking : Monitoring run-time modified files using timeStampMaster (fileModificationSkew 5, maxFileModificationPolls 20)
allowSystemOperations : Allowing user-supplied system call operations

// * * * * * * * * * * * * * * * * * * * * * * * * * * * * * * * * * * * * * //
Create time

Create mesh for time = 0


PISO: Operating solver in PISO mode

Reading transportProperties

Reading field p

Reading field U

Reading/calculating face flux field phi


Starting time loop

Time = 0.001

Courant Number mean: 0 max: 0
DILUPBiCGStab:  Solving for Ux, Initial residual = 1, Final residual = 0.0122484, No Iterations 5
DILUPBiCGStab:  Solving for Uy:  solution singularity
DILUPBiCGStab:  Solving for Uz:  solution singularity
linear solve U 12319
GAMGPCG:  Solving for p, Initial residual = 1, Final residual = 5.14982e-07, No Iterations 8
linear solve p 956889
time step continuity errors : sum local = 3.12549e-10, global = -2.43721e-21, cumulative = -2.43721e-21
GAMGPCG:  Solving for p, Initial residual = 0.772332, Final residual = 3.94047e-07, No Iterations 8
linear solve p 921466
time step continuity errors : sum local = 3.02484e-10, global = -1.95686e-20, cumulative = -2.20058e-20
ExecutionTime = 2.09 s  ClockTime = 2 s

Time = 0.002

Courant Number mean: 0.0550579 max: 0.807874
DILUPBiCGStab:  Solving for Ux, Initial residual = 0.137027, Final residual = 0.00657433, No Iterations 5
DILUPBiCGStab:  Solving for Uy, Initial residual = 0.431779, Final residual = 0.0185169, No Iterations 5
DILUPBiCGStab:  Solving for Uz, Initial residual = 0.940929, Final residual = 0.0388574, No Iterations 5
linear solve U 17462
GAMGPCG:  Solving for p, Initial residual = 0.820007, Final residual = 2.35215e-07, No Iterations 8
linear solve p 963289
time step continuity errors : sum local = 2.67996e-10, global = -2.97711e-20, cumulative = -5.17769e-20
GAMGPCG:  Solving for p, Initial residual = 0.755776, Final residual = 2.20528e-07, No Iterations 8
linear solve p 918697
time step continuity errors : sum local = 2.57825e-10, global = -7.71229e-21, cumulative = -5.94892e-20
ExecutionTime = 4.02 s  ClockTime = 4 s

Time = 0.003

Courant Number mean: 0.0839658 max: 0.944024
DILUPBiCGStab:  Solving for Ux, Initial residual = 0.0643558, Final residual = 0.00235535, No Iterations 5
DILUPBiCGStab:  Solving for Uy, Initial residual = 0.225566, Final residual = 0.00619854, No Iterations 5
DILUPBiCGStab:  Solving for Uz, Initial residual = 0.72266, Final residual = 0.0266284, No Iterations 5
linear solve U 16795
GAMGPCG:  Solving for p, Initial residual = 0.842366, Final residual = 6.92588e-07, No Iterations 7
linear solve p 806668
time step continuity errors : sum local = 7.0719e-10, global = 3.61678e-21, cumulative = -5.58724e-20
GAMGPCG:  Solving for p, Initial residual = 0.806321, Final residual = 6.38458e-07, No Iterations 7
linear solve p 831914
time step continuity errors : sum local = 6.37205e-10, global = -2.44973e-20, cumulative = -8.03697e-20
ExecutionTime = 5.69 s  ClockTime = 6 s

End

Finalising parallel run
================================================================================
hash: 18e7091c61a27d4626fdda6940df0c1b
/*---------------------------------------------------------------------------*\
| =========                 |                                                 |
| \\      /  F ield         | OpenFOAM: The Open Source CFD Toolbox           |
|  \\    /   O peration     | Version:  2112                                  |
|   \\  /    A nd           | Website:  www.openfoam.com                      |
|    \\/     M anipulation  |                                                 |
\*---------------------------------------------------------------------------*/
Build  : d44c8318f0-20220111 OPENFOAM=2112 version=v2112
Arch   : "LSB;label=32;scalar=64"
Exec   : icoFoam -parallel
Date   : Jan 30 2022
Time   : 20:51:29
Host   : hkn1250.localdomain
PID    : 2988921
I/O    : uncollated
Case   : /hkfs/home/project/hk-project-test-fine/eq4036/data/code/ogl_labbook/lidDrivenCavity/solver/Variation_mesh/200/Variation_matrix_solver/CG_GAMG_DefaultOF/Variation_mpiRank/72/base
nProcs : 72
Hosts  :
(
    (hkn1250.localdomain 72)
)
Pstream initialized with:
    floatTransfer      : 0
    nProcsSimpleSum    : 0
    commsType          : nonBlocking
    polling iterations : 0
trapFpe: Floating point exception trapping enabled (FOAM_SIGFPE).
fileModificationChecking : Monitoring run-time modified files using timeStampMaster (fileModificationSkew 5, maxFileModificationPolls 20)
allowSystemOperations : Allowing user-supplied system call operations

// * * * * * * * * * * * * * * * * * * * * * * * * * * * * * * * * * * * * * //
Create time

Create mesh for time = 0


PISO: Operating solver in PISO mode

Reading transportProperties

Reading field p

Reading field U

Reading/calculating face flux field phi


Starting time loop

Time = 0.0005

Courant Number mean: 0 max: 0
DILUPBiCGStab:  Solving for Ux, Initial residual = 1, Final residual = 0.023463, No Iterations 5
DILUPBiCGStab:  Solving for Uy:  solution singularity
DILUPBiCGStab:  Solving for Uz:  solution singularity
linear solve U 172622
GAMGPCG:  Solving for p, Initial residual = 1, Final residual = 4.30657e-07, No Iterations 17
linear solve p 3260387
time step continuity errors : sum local = 9.00748e-11, global = 6.56006e-21, cumulative = 6.56006e-21
GAMGPCG:  Solving for p, Initial residual = 0.822224, Final residual = 6.64033e-07, No Iterations 15
linear solve p 2804585
time step continuity errors : sum local = 1.66677e-10, global = -2.21856e-21, cumulative = 4.3415e-21
ExecutionTime = 7.06 s  ClockTime = 8 s

Time = 0.001

Courant Number mean: 0.0388251 max: 0.866522
DILUPBiCGStab:  Solving for Ux, Initial residual = 0.117669, Final residual = 0.0146538, No Iterations 5
DILUPBiCGStab:  Solving for Uy, Initial residual = 0.50661, Final residual = 0.0576255, No Iterations 5
DILUPBiCGStab:  Solving for Uz, Initial residual = 0.913329, Final residual = 0.10981, No Iterations 5
linear solve U 356572
GAMGPCG:  Solving for p, Initial residual = 0.908312, Final residual = 6.40765e-07, No Iterations 20
linear solve p 3712240
time step continuity errors : sum local = 3.67022e-10, global = 9.69552e-22, cumulative = 5.31105e-21
GAMGPCG:  Solving for p, Initial residual = 0.856213, Final residual = 6.33506e-07, No Iterations 16
linear solve p 3010936
time step continuity errors : sum local = 3.702e-10, global = -4.44507e-21, cumulative = 8.65981e-22
ExecutionTime = 14.41 s  ClockTime = 15 s

Time = 0.0015

Courant Number mean: 0.0609306 max: 1.02317
DILUPBiCGStab:  Solving for Ux, Initial residual = 0.068079, Final residual = 0.00639651, No Iterations 5
DILUPBiCGStab:  Solving for Uy, Initial residual = 0.356001, Final residual = 0.0241804, No Iterations 5
DILUPBiCGStab:  Solving for Uz, Initial residual = 0.764866, Final residual = 0.0749115, No Iterations 5
linear solve U 339335
GAMGPCG:  Solving for p, Initial residual = 0.940389, Final residual = 9.36534e-07, No Iterations 15
linear solve p 2755881
time step continuity errors : sum local = 6.57058e-10, global = -1.46376e-21, cumulative = -5.97777e-22
GAMGPCG:  Solving for p, Initial residual = 0.905528, Final residual = 3.64441e-07, No Iterations 16
linear solve p 3017751
time step continuity errors : sum local = 2.54104e-10, global = 9.17813e-22, cumulative = 3.20036e-22
ExecutionTime = 20.78 s  ClockTime = 22 s

End

Finalising parallel run
================================================================================
hash: 02b0c6ef0231d9edb33f060835d636e9
/*---------------------------------------------------------------------------*\
| =========                 |                                                 |
| \\      /  F ield         | OpenFOAM: The Open Source CFD Toolbox           |
|  \\    /   O peration     | Version:  2112                                  |
|   \\  /    A nd           | Website:  www.openfoam.com                      |
|    \\/     M anipulation  |                                                 |
\*---------------------------------------------------------------------------*/
Build  : d44c8318f0-20220111 OPENFOAM=2112 version=v2112
Arch   : "LSB;label=32;scalar=64"
Exec   : icoFoam -parallel
Date   : Jan 30 2022
Time   : 20:51:15
Host   : hkn1249.localdomain
PID    : 2502516
I/O    : uncollated
Case   : /hkfs/home/project/hk-project-test-fine/eq4036/data/code/ogl_labbook/lidDrivenCavity/solver/Variation_mesh/300/Variation_matrix_solver/CG_GAMG_DefaultOF/Variation_mpiRank/72/base
nProcs : 72
Hosts  :
(
    (hkn1249.localdomain 72)
)
Pstream initialized with:
    floatTransfer      : 0
    nProcsSimpleSum    : 0
    commsType          : nonBlocking
    polling iterations : 0
trapFpe: Floating point exception trapping enabled (FOAM_SIGFPE).
fileModificationChecking : Monitoring run-time modified files using timeStampMaster (fileModificationSkew 5, maxFileModificationPolls 20)
allowSystemOperations : Allowing user-supplied system call operations

// * * * * * * * * * * * * * * * * * * * * * * * * * * * * * * * * * * * * * //
Create time

Create mesh for time = 0


PISO: Operating solver in PISO mode

Reading transportProperties

Reading field p

Reading field U

Reading/calculating face flux field phi


Starting time loop

Time = 0.000333333

Courant Number mean: 0 max: 0
DILUPBiCGStab:  Solving for Ux, Initial residual = 1, Final residual = 0.0306566, No Iterations 5
DILUPBiCGStab:  Solving for Uy:  solution singularity
DILUPBiCGStab:  Solving for Uz:  solution singularity
linear solve U 632417
GAMGPCG:  Solving for p, Initial residual = 1, Final residual = 8.7031e-07, No Iterations 26
linear solve p 8906071
time step continuity errors : sum local = 9.3085e-11, global = 2.51361e-21, cumulative = 2.51361e-21
GAMGPCG:  Solving for p, Initial residual = 0.836485, Final residual = 7.07832e-07, No Iterations 26
linear solve p 8660750
time step continuity errors : sum local = 8.95447e-11, global = -1.49554e-21, cumulative = 1.01807e-21
ExecutionTime = 20.92 s  ClockTime = 23 s

Time = 0.000666667

Courant Number mean: 0.0300976 max: 0.891629
DILUPBiCGStab:  Solving for Ux, Initial residual = 0.106154, Final residual = 0.0199554, No Iterations 5
DILUPBiCGStab:  Solving for Uy, Initial residual = 0.546985, Final residual = 0.0971073, No Iterations 5
DILUPBiCGStab:  Solving for Uz, Initial residual = 0.886066, Final residual = 0.171857, No Iterations 5
linear solve U 1237949
GAMGPCG:  Solving for p, Initial residual = 0.933602, Final residual = 9.37412e-07, No Iterations 22
linear solve p 7304009
time step continuity errors : sum local = 3.32468e-10, global = -3.91919e-21, cumulative = -2.90112e-21
GAMGPCG:  Solving for p, Initial residual = 0.884949, Final residual = 9.80239e-07, No Iterations 22
linear solve p 7346515
time step continuity errors : sum local = 3.54623e-10, global = -2.53714e-21, cumulative = -5.43825e-21
ExecutionTime = 37.73 s  ClockTime = 39 s

Time = 0.001

Courant Number mean: 0.0482101 max: 1.073
DILUPBiCGStab:  Solving for Ux, Initial residual = 0.0660435, Final residual = 0.00975824, No Iterations 5
DILUPBiCGStab:  Solving for Uy, Initial residual = 0.414725, Final residual = 0.0445331, No Iterations 5
DILUPBiCGStab:  Solving for Uz, Initial residual = 0.788265, Final residual = 0.116658, No Iterations 5
linear solve U 1245453
GAMGPCG:  Solving for p, Initial residual = 0.962193, Final residual = 8.1665e-07, No Iterations 21
linear solve p 7058505
time step continuity errors : sum local = 4.17575e-10, global = -2.62768e-21, cumulative = -8.06593e-21
GAMGPCG:  Solving for p, Initial residual = 0.925152, Final residual = 9.86942e-07, No Iterations 20
linear solve p 6691396
time step continuity errors : sum local = 5.04778e-10, global = -2.58405e-21, cumulative = -1.065e-20
ExecutionTime = 53.64 s  ClockTime = 55 s

End

Finalising parallel run
================================================================================
