slurmstepd: error: *** JOB 1749005 ON hkn0422 CANCELLED AT 2022-05-29T21:31:22 ***

============================= JOB FEEDBACK =============================

Job ID: 1749005
Cluster: hk
User/Group: eq4036/hk-project-test-fine
State: CANCELLED (exit code 0)
Partition: accelerated
Nodes: 1
Cores per node: 152
Nodelist: hkn0422
CPU Utilized: 00:00:00
CPU Efficiency: 0.00% of 10:02:56 core-walltime
Job Wall-clock time: 00:03:58
Starttime: Sun May 29 21:27:24 2022
Endtime: Sun May 29 21:31:22 2022
Memory Utilized: 52.94 GB
Memory Efficiency: 10.84% of 488.28 GB
Energy Consumed: 142560 Joule / 39.6 Watthours
Average node power draw: 598.991596638655 Watt

============================= JOB FEEDBACK =============================

Job ID: 1749035
Cluster: hk
User/Group: eq4036/hk-project-test-fine
State: COMPLETED (exit code 0)
Partition: accelerated
Nodes: 1
Cores per node: 152
Nodelist: hkn0424
CPU Utilized: 07:41:02
CPU Efficiency: 1.31% of 24-11:26:16 core-walltime
Job Wall-clock time: 03:51:53
Starttime: Sun May 29 21:34:58 2022
Endtime: Mon May 30 01:26:51 2022
Memory Utilized: 186.85 GB
Memory Efficiency: 38.27% of 488.28 GB
Energy Consumed: 10450390 Joule / 2902.88611111111 Watthours
Average node power draw: 751.124128512902 Watt
hash: df1e88f9a8423d8a5c98dfd942d2b7a2
/*---------------------------------------------------------------------------*\
| =========                 |                                                 |
| \\      /  F ield         | OpenFOAM: The Open Source CFD Toolbox           |
|  \\    /   O peration     | Version:  2112                                  |
|   \\  /    A nd           | Website:  www.openfoam.com                      |
|    \\/     M anipulation  |                                                 |
\*---------------------------------------------------------------------------*/
Build  : d44c8318f0-20220111 OPENFOAM=2112 version=v2112
Arch   : "LSB;label=32;scalar=64"
Exec   : icoFoam -parallel
Date   : May 29 2022
Time   : 21:35:21
Host   : hkn0424.localdomain
PID    : 260754
I/O    : uncollated
Case   : /hkfs/work/workspace/scratch/eq4036-lidDrivenCavity/simple/Variation_mesh/500/Variation_matrix_solver/CG_NoPrecond_CUDA/Variation_mpiRank_gko/2/base
nProcs : 2
Hosts  :
(
    (hkn0424.localdomain 2)
)
Pstream initialized with:
    floatTransfer      : 0
    nProcsSimpleSum    : 0
    commsType          : nonBlocking
    polling iterations : 0
trapFpe: Floating point exception trapping enabled (FOAM_SIGFPE).
fileModificationChecking : Monitoring run-time modified files using timeStampMaster (fileModificationSkew 5, maxFileModificationPolls 20)
allowSystemOperations : Allowing user-supplied system call operations

// * * * * * * * * * * * * * * * * * * * * * * * * * * * * * * * * * * * * * //
Create time

Create mesh for time = 0


PISO: Operating solver in PISO mode

Reading transportProperties

Reading field p

Reading field U

Reading/calculating face flux field phi


Starting time loop

Time = 2e-05

Courant Number mean: 0 max: 0
DILUPBiCGStab:  Solving for Ux, Initial residual = 1, Final residual = 0.00221092, No Iterations 5
DILUPBiCGStab:  Solving for Uy:  solution singularity
DILUPBiCGStab:  Solving for Uz:  solution singularity
linear solve U 41271458
[OGL LOG][Proc: 0]global_index_init : 6711 mu s
[OGL LOG][Proc: 0]global_index_init : 1 mu s
[OGL LOG][Proc: 0]init_host_sparsity_pattern : 7238459344 mu s
[OGL LOG][Proc: 0]update_host_matrix_data : 1774671 mu s
[OGL LOG][Proc: 0]convert_coo_to_csr : 2564112 mu s
[OGL LOG][lduLduBase.H:149] Initialising OGL Version  0ff6b71 HEAD 
	 Ginkgoversion1.5.0(develop)
	MPI is GPU aware: 0
[OGL LOG][Proc: 0]gather_global_matrix : 3 mu s
[OGL LOG][Proc: 0]init_precond : 87 mu s
[OGL LOG][Proc: 0]generate_solver : 19 mu s
[OGL LOG][Proc: 0]solve : 68843685 mu s
[OGL LOG][Proc: 0]copy_x_back : 228617 mu s
[OGL LOG][lduLduBase.H:347] Time per iteration 16750 [mu s] Time per iteration and DOF 0.134000 [ns]
nonecudaGKOCG:  Solving for p, Initial residual = 1, Final residual = 9.99785e-05, No Iterations 4110
linear solve p -1246445611
time step continuity errors : sum local = 1.73248e-10, global = 1.46808e-22, cumulative = 1.46808e-22
[OGL LOG][Proc: 0]global_index_init : 9 mu s
[OGL LOG][Proc: 0]global_index_init : 0 mu s
[OGL LOG][Proc: 0]update_host_matrix_data : 1564365 mu s
[OGL LOG][Proc: 0]gather_global_matrix : 0 mu s
[OGL LOG][Proc: 0]init_precond : 45 mu s
[OGL LOG][Proc: 0]generate_solver : 1 mu s
[OGL LOG][Proc: 0]solve : 66753198 mu s
[OGL LOG][Proc: 0]copy_x_back : 229891 mu s
[OGL LOG][lduLduBase.H:347] Time per iteration 16277 [mu s] Time per iteration and DOF 0.130216 [ns]
nonecudaGKOCG:  Solving for p, Initial residual = 0.736007, Final residual = 7.71323e-05, No Iterations 4101
linear solve p 97360392
time step continuity errors : sum local = 1.76794e-10, global = 2.92793e-23, cumulative = 1.76087e-22
ExecutionTime = 7738.13 s  ClockTime = 7752 s

Time = 4e-05

Courant Number mean: 0.00105578 max: 0.0776342
DILUPBiCGStab:  Solving for Ux, Initial residual = 0.150267, Final residual = 0.00131032, No Iterations 5
DILUPBiCGStab:  Solving for Uy, Initial residual = 0.356029, Final residual = 0.00122663, No Iterations 5
DILUPBiCGStab:  Solving for Uz, Initial residual = 0.997766, Final residual = 0.00570223, No Iterations 5
linear solve U 84272195
[OGL LOG][Proc: 0]global_index_init : 6 mu s
[OGL LOG][Proc: 0]global_index_init : 0 mu s
[OGL LOG][Proc: 0]update_host_matrix_data : 1556021 mu s
[OGL LOG][Proc: 0]gather_global_matrix : 0 mu s
[OGL LOG][Proc: 0]init_precond : 45 mu s
[OGL LOG][Proc: 0]generate_solver : 1 mu s
[OGL LOG][Proc: 0]solve : 67148190 mu s
[OGL LOG][Proc: 0]copy_x_back : 227610 mu s
[OGL LOG][lduLduBase.H:347] Time per iteration 16373 [mu s] Time per iteration and DOF 0.130984 [ns]
nonecudaGKOCG:  Solving for p, Initial residual = 0.700069, Final residual = 4.42126e-05, No Iterations 4101
linear solve p 97773755
time step continuity errors : sum local = 1.16576e-10, global = -3.58669e-23, cumulative = 1.4022e-22
[OGL LOG][Proc: 0]global_index_init : 7 mu s
[OGL LOG][Proc: 0]global_index_init : 0 mu s
[OGL LOG][Proc: 0]update_host_matrix_data : 1558190 mu s
[OGL LOG][Proc: 0]gather_global_matrix : 0 mu s
[OGL LOG][Proc: 0]init_precond : 42 mu s
[OGL LOG][Proc: 0]generate_solver : 1 mu s
[OGL LOG][Proc: 0]solve : 67160297 mu s
[OGL LOG][Proc: 0]copy_x_back : 228344 mu s
[OGL LOG][lduLduBase.H:347] Time per iteration 16376 [mu s] Time per iteration and DOF 0.131008 [ns]
nonecudaGKOCG:  Solving for p, Initial residual = 0.632911, Final residual = 4.04685e-05, No Iterations 4101
linear solve p 97766921
time step continuity errors : sum local = 1.08332e-10, global = 6.02743e-25, cumulative = 1.40823e-22
ExecutionTime = 8073.24 s  ClockTime = 8090 s

Time = 6e-05

Courant Number mean: 0.0016071 max: 0.0884744
DILUPBiCGStab:  Solving for Ux, Initial residual = 0.0623697, Final residual = 0.000343624, No Iterations 5
DILUPBiCGStab:  Solving for Uy, Initial residual = 0.140286, Final residual = 0.000242898, No Iterations 5
DILUPBiCGStab:  Solving for Uz, Initial residual = 0.661027, Final residual = 0.00413159, No Iterations 5
linear solve U 84103476
[OGL LOG][Proc: 0]global_index_init : 8 mu s
[OGL LOG][Proc: 0]global_index_init : 0 mu s
[OGL LOG][Proc: 0]update_host_matrix_data : 1553572 mu s
[OGL LOG][Proc: 0]gather_global_matrix : 0 mu s
[OGL LOG][Proc: 0]init_precond : 48 mu s
[OGL LOG][Proc: 0]generate_solver : 2 mu s
[OGL LOG][Proc: 0]solve : 64546217 mu s
[OGL LOG][Proc: 0]copy_x_back : 227892 mu s
[OGL LOG][lduLduBase.H:347] Time per iteration 16394 [mu s] Time per iteration and DOF 0.131152 [ns]
nonecudaGKOCG:  Solving for p, Initial residual = 0.651186, Final residual = 7.80881e-05, No Iterations 3937
linear solve p 95119765
time step continuity errors : sum local = 1.51945e-10, global = -1.10612e-23, cumulative = 1.29762e-22
[OGL LOG][Proc: 0]global_index_init : 12 mu s
[OGL LOG][Proc: 0]global_index_init : 0 mu s
[OGL LOG][Proc: 0]update_host_matrix_data : 1559420 mu s
[OGL LOG][Proc: 0]gather_global_matrix : 0 mu s
[OGL LOG][Proc: 0]init_precond : 49 mu s
[OGL LOG][Proc: 0]generate_solver : 3 mu s
[OGL LOG][Proc: 0]solve : 64389124 mu s
[OGL LOG][Proc: 0]copy_x_back : 228029 mu s
[OGL LOG][lduLduBase.H:347] Time per iteration 16400 [mu s] Time per iteration and DOF 0.131200 [ns]
nonecudaGKOCG:  Solving for p, Initial residual = 0.598488, Final residual = 7.78744e-05, No Iterations 3926
linear solve p 94969358
time step continuity errors : sum local = 1.4824e-10, global = 1.48135e-24, cumulative = 1.31243e-22
ExecutionTime = 8403.09 s  ClockTime = 8422 s

Time = 8e-05

Courant Number mean: 0.00199295 max: 0.0913808
DILUPBiCGStab:  Solving for Ux, Initial residual = 0.0414945, Final residual = 0.000159701, No Iterations 5
DILUPBiCGStab:  Solving for Uy, Initial residual = 0.0887131, Final residual = 0.000138059, No Iterations 5
DILUPBiCGStab:  Solving for Uz, Initial residual = 0.161317, Final residual = 0.000691711, No Iterations 5
linear solve U 84097453
[OGL LOG][Proc: 0]global_index_init : 6 mu s
[OGL LOG][Proc: 0]global_index_init : 0 mu s
[OGL LOG][Proc: 0]update_host_matrix_data : 1554948 mu s
[OGL LOG][Proc: 0]gather_global_matrix : 0 mu s
[OGL LOG][Proc: 0]init_precond : 51 mu s
[OGL LOG][Proc: 0]generate_solver : 3 mu s
[OGL LOG][Proc: 0]solve : 64390375 mu s
[OGL LOG][Proc: 0]copy_x_back : 227796 mu s
[OGL LOG][lduLduBase.H:347] Time per iteration 16401 [mu s] Time per iteration and DOF 0.131208 [ns]
nonecudaGKOCG:  Solving for p, Initial residual = 0.424817, Final residual = 3.80936e-05, No Iterations 3926
linear solve p 94973142
time step continuity errors : sum local = 6.12785e-11, global = -3.20939e-23, cumulative = 9.91494e-23
[OGL LOG][Proc: 0]global_index_init : 7 mu s
[OGL LOG][Proc: 0]global_index_init : 0 mu s
[OGL LOG][Proc: 0]update_host_matrix_data : 1556696 mu s
[OGL LOG][Proc: 0]gather_global_matrix : 0 mu s
[OGL LOG][Proc: 0]init_precond : 48 mu s
[OGL LOG][Proc: 0]generate_solver : 1 mu s
[OGL LOG][Proc: 0]solve : 64389334 mu s
[OGL LOG][Proc: 0]copy_x_back : 227700 mu s
[OGL LOG][lduLduBase.H:347] Time per iteration 16400 [mu s] Time per iteration and DOF 0.131200 [ns]
nonecudaGKOCG:  Solving for p, Initial residual = 0.362668, Final residual = 3.44721e-05, No Iterations 3926
linear solve p 94975607
time step continuity errors : sum local = 5.5853e-11, global = -3.99487e-23, cumulative = 5.92007e-23
ExecutionTime = 8732.68 s  ClockTime = 8755 s

Time = 0.0001

Courant Number mean: 0.00230681 max: 0.092787
DILUPBiCGStab:  Solving for Ux, Initial residual = 0.031813, Final residual = 8.18459e-05, No Iterations 5
DILUPBiCGStab:  Solving for Uy, Initial residual = 0.0636163, Final residual = 7.14874e-05, No Iterations 5
DILUPBiCGStab:  Solving for Uz, Initial residual = 0.0894804, Final residual = 0.000304552, No Iterations 5
linear solve U 83997655
[OGL LOG][Proc: 0]global_index_init : 6 mu s
[OGL LOG][Proc: 0]global_index_init : 0 mu s
[OGL LOG][Proc: 0]update_host_matrix_data : 1555927 mu s
[OGL LOG][Proc: 0]gather_global_matrix : 0 mu s
[OGL LOG][Proc: 0]init_precond : 49 mu s
[OGL LOG][Proc: 0]generate_solver : 2 mu s
[OGL LOG][Proc: 0]solve : 61910646 mu s
[OGL LOG][Proc: 0]copy_x_back : 227740 mu s
[OGL LOG][lduLduBase.H:347] Time per iteration 16426 [mu s] Time per iteration and DOF 0.131408 [ns]
nonecudaGKOCG:  Solving for p, Initial residual = 0.328044, Final residual = 9.85911e-05, No Iterations 3769
linear solve p 92477643
time step continuity errors : sum local = 1.31644e-10, global = -3.22017e-23, cumulative = 2.6999e-23
[OGL LOG][Proc: 0]global_index_init : 7 mu s
[OGL LOG][Proc: 0]global_index_init : 0 mu s
[OGL LOG][Proc: 0]update_host_matrix_data : 1556056 mu s
[OGL LOG][Proc: 0]gather_global_matrix : 0 mu s
[OGL LOG][Proc: 0]init_precond : 48 mu s
[OGL LOG][Proc: 0]generate_solver : 3 mu s
[OGL LOG][Proc: 0]solve : 63999458 mu s
[OGL LOG][Proc: 0]copy_x_back : 227556 mu s
[OGL LOG][lduLduBase.H:347] Time per iteration 16405 [mu s] Time per iteration and DOF 0.131240 [ns]
nonecudaGKOCG:  Solving for p, Initial residual = 0.281452, Final residual = 3.80864e-05, No Iterations 3901
linear solve p 94567710
time step continuity errors : sum local = 5.0554e-11, global = 7.61246e-23, cumulative = 1.03124e-22
ExecutionTime = 9059.48 s  ClockTime = 9084 s

Time = 0.00012

Courant Number mean: 0.00257542 max: 0.0936646
DILUPBiCGStab:  Solving for Ux, Initial residual = 0.0259261, Final residual = 6.12197e-05, No Iterations 5
DILUPBiCGStab:  Solving for Uy, Initial residual = 0.050042, Final residual = 3.79068e-05, No Iterations 5
DILUPBiCGStab:  Solving for Uz, Initial residual = 0.0787642, Final residual = 0.000272642, No Iterations 5
linear solve U 83987450
[OGL LOG][Proc: 0]global_index_init : 6 mu s
[OGL LOG][Proc: 0]global_index_init : 0 mu s
[OGL LOG][Proc: 0]update_host_matrix_data : 1556323 mu s
[OGL LOG][Proc: 0]gather_global_matrix : 0 mu s
[OGL LOG][Proc: 0]init_precond : 48 mu s
[OGL LOG][Proc: 0]generate_solver : 3 mu s
[OGL LOG][Proc: 0]solve : 64004682 mu s
[OGL LOG][Proc: 0]copy_x_back : 226868 mu s
[OGL LOG][lduLduBase.H:347] Time per iteration 16407 [mu s] Time per iteration and DOF 0.131256 [ns]
nonecudaGKOCG:  Solving for p, Initial residual = 0.207598, Final residual = 3.54836e-05, No Iterations 3901
linear solve p 94586184
time step continuity errors : sum local = 4.51962e-11, global = -1.59144e-23, cumulative = 8.72092e-23
[OGL LOG][Proc: 0]global_index_init : 8 mu s
[OGL LOG][Proc: 0]global_index_init : 0 mu s
[OGL LOG][Proc: 0]update_host_matrix_data : 1558567 mu s
[OGL LOG][Proc: 0]gather_global_matrix : 0 mu s
[OGL LOG][Proc: 0]init_precond : 49 mu s
[OGL LOG][Proc: 0]generate_solver : 1 mu s
[OGL LOG][Proc: 0]solve : 64006148 mu s
[OGL LOG][Proc: 0]copy_x_back : 227620 mu s
[OGL LOG][lduLduBase.H:347] Time per iteration 16407 [mu s] Time per iteration and DOF 0.131256 [ns]
nonecudaGKOCG:  Solving for p, Initial residual = 0.17337, Final residual = 3.33041e-05, No Iterations 3901
linear solve p 94574759
time step continuity errors : sum local = 4.24032e-11, global = 6.54511e-23, cumulative = 1.5266e-22
ExecutionTime = 9388.28 s  ClockTime = 9415 s

Time = 0.00014

Courant Number mean: 0.00281293 max: 0.0942765
DILUPBiCGStab:  Solving for Ux, Initial residual = 0.0220094, Final residual = 4.13766e-05, No Iterations 5
DILUPBiCGStab:  Solving for Uy, Initial residual = 0.0411029, Final residual = 2.91989e-05, No Iterations 5
DILUPBiCGStab:  Solving for Uz, Initial residual = 0.0656504, Final residual = 0.00015304, No Iterations 5
linear solve U 84063327
[OGL LOG][Proc: 0]global_index_init : 7 mu s
[OGL LOG][Proc: 0]global_index_init : 0 mu s
[OGL LOG][Proc: 0]update_host_matrix_data : 1554838 mu s
[OGL LOG][Proc: 0]gather_global_matrix : 0 mu s
[OGL LOG][Proc: 0]init_precond : 48 mu s
[OGL LOG][Proc: 0]generate_solver : 2 mu s
[OGL LOG][Proc: 0]solve : 61535248 mu s
[OGL LOG][Proc: 0]copy_x_back : 227259 mu s
[OGL LOG][lduLduBase.H:347] Time per iteration 16431 [mu s] Time per iteration and DOF 0.131448 [ns]
nonecudaGKOCG:  Solving for p, Initial residual = 0.150297, Final residual = 8.74986e-05, No Iterations 3745
linear solve p 92108322
time step continuity errors : sum local = 1.0595e-10, global = -1.27754e-23, cumulative = 1.39885e-22
[OGL LOG][Proc: 0]global_index_init : 7 mu s
[OGL LOG][Proc: 0]global_index_init : 0 mu s
[OGL LOG][Proc: 0]update_host_matrix_data : 1560340 mu s
[OGL LOG][Proc: 0]gather_global_matrix : 0 mu s
[OGL LOG][Proc: 0]init_precond : 54 mu s
[OGL LOG][Proc: 0]generate_solver : 1 mu s
[OGL LOG][Proc: 0]solve : 63569789 mu s
[OGL LOG][Proc: 0]copy_x_back : 227584 mu s
[OGL LOG][lduLduBase.H:347] Time per iteration 16405 [mu s] Time per iteration and DOF 0.131240 [ns]
nonecudaGKOCG:  Solving for p, Initial residual = 0.126339, Final residual = 3.69082e-05, No Iterations 3875
linear solve p 94157285
time step continuity errors : sum local = 4.46901e-11, global = -3.65495e-24, cumulative = 1.3623e-22
ExecutionTime = 9714.31 s  ClockTime = 9744 s

Time = 0.00016

Courant Number mean: 0.00302714 max: 0.094736
DILUPBiCGStab:  Solving for Ux, Initial residual = 0.0191749, Final residual = 3.07311e-05, No Iterations 5
DILUPBiCGStab:  Solving for Uy, Initial residual = 0.0349128, Final residual = 1.42087e-05, No Iterations 5
DILUPBiCGStab:  Solving for Uz, Initial residual = 0.058306, Final residual = 0.000104231, No Iterations 5
linear solve U 84029764
[OGL LOG][Proc: 0]global_index_init : 6 mu s
[OGL LOG][Proc: 0]global_index_init : 0 mu s
[OGL LOG][Proc: 0]update_host_matrix_data : 1554876 mu s
[OGL LOG][Proc: 0]gather_global_matrix : 0 mu s
[OGL LOG][Proc: 0]init_precond : 47 mu s
[OGL LOG][Proc: 0]generate_solver : 1 mu s
[OGL LOG][Proc: 0]solve : 61153593 mu s
[OGL LOG][Proc: 0]copy_x_back : 227584 mu s
[OGL LOG][lduLduBase.H:347] Time per iteration 16434 [mu s] Time per iteration and DOF 0.131472 [ns]
nonecudaGKOCG:  Solving for p, Initial residual = 0.0991532, Final residual = 9.77043e-05, No Iterations 3721
linear solve p 91720478
time step continuity errors : sum local = 1.15455e-10, global = -9.74525e-24, cumulative = 1.26485e-22
[OGL LOG][Proc: 0]global_index_init : 6 mu s
[OGL LOG][Proc: 0]global_index_init : 1 mu s
[OGL LOG][Proc: 0]update_host_matrix_data : 1555778 mu s
[OGL LOG][Proc: 0]gather_global_matrix : 0 mu s
[OGL LOG][Proc: 0]init_precond : 46 mu s
[OGL LOG][Proc: 0]generate_solver : 1 mu s
[OGL LOG][Proc: 0]solve : 60862463 mu s
[OGL LOG][Proc: 0]copy_x_back : 228236 mu s
[OGL LOG][lduLduBase.H:347] Time per iteration 16444 [mu s] Time per iteration and DOF 0.131552 [ns]
nonecudaGKOCG:  Solving for p, Initial residual = 0.082543, Final residual = 9.91752e-05, No Iterations 3701
linear solve p 91461505
time step continuity errors : sum local = 1.17128e-10, global = -7.48439e-23, cumulative = 5.16408e-23
ExecutionTime = 10037.3 s  ClockTime = 10069 s

Time = 0.00018

Courant Number mean: 0.00322321 max: 0.0950968
DILUPBiCGStab:  Solving for Ux, Initial residual = 0.0170098, Final residual = 2.22634e-05, No Iterations 5
DILUPBiCGStab:  Solving for Uy, Initial residual = 0.0303376, Final residual = 1.25923e-05, No Iterations 5
DILUPBiCGStab:  Solving for Uz, Initial residual = 0.0514085, Final residual = 7.58962e-05, No Iterations 5
linear solve U 84062029
[OGL LOG][Proc: 0]global_index_init : 8 mu s
[OGL LOG][Proc: 0]global_index_init : 0 mu s
[OGL LOG][Proc: 0]update_host_matrix_data : 1554576 mu s
[OGL LOG][Proc: 0]gather_global_matrix : 0 mu s
[OGL LOG][Proc: 0]init_precond : 47 mu s
[OGL LOG][Proc: 0]generate_solver : 1 mu s
[OGL LOG][Proc: 0]solve : 63172562 mu s
[OGL LOG][Proc: 0]copy_x_back : 228483 mu s
[OGL LOG][lduLduBase.H:347] Time per iteration 16412 [mu s] Time per iteration and DOF 0.131296 [ns]
nonecudaGKOCG:  Solving for p, Initial residual = 0.0747947, Final residual = 4.63111e-05, No Iterations 3849
linear solve p 93739368
time step continuity errors : sum local = 5.38219e-11, global = -1.09662e-23, cumulative = 4.06746e-23
[OGL LOG][Proc: 0]global_index_init : 6 mu s
[OGL LOG][Proc: 0]global_index_init : 2 mu s
[OGL LOG][Proc: 0]update_host_matrix_data : 1557651 mu s
[OGL LOG][Proc: 0]gather_global_matrix : 0 mu s
[OGL LOG][Proc: 0]init_precond : 49 mu s
[OGL LOG][Proc: 0]generate_solver : 2 mu s
[OGL LOG][Proc: 0]solve : 62817084 mu s
[OGL LOG][Proc: 0]copy_x_back : 227254 mu s
[OGL LOG][lduLduBase.H:347] Time per iteration 16418 [mu s] Time per iteration and DOF 0.131344 [ns]
nonecudaGKOCG:  Solving for p, Initial residual = 0.0626104, Final residual = 6.92521e-05, No Iterations 3826
linear solve p 93391583
time step continuity errors : sum local = 8.0502e-11, global = -4.43994e-23, cumulative = -3.72479e-24
ExecutionTime = 10364.1 s  ClockTime = 10398 s

Time = 0.0002

Courant Number mean: 0.00340458 max: 0.0953899
DILUPBiCGStab:  Solving for Ux, Initial residual = 0.0153111, Final residual = 1.73481e-05, No Iterations 5
DILUPBiCGStab:  Solving for Uy, Initial residual = 0.0268128, Final residual = 6.91855e-06, No Iterations 5
DILUPBiCGStab:  Solving for Uz, Initial residual = 0.0469754, Final residual = 5.58159e-05, No Iterations 5
linear solve U 84020610
[OGL LOG][Proc: 0]global_index_init : 7 mu s
[OGL LOG][Proc: 0]global_index_init : 0 mu s
[OGL LOG][Proc: 0]update_host_matrix_data : 1554597 mu s
[OGL LOG][Proc: 0]gather_global_matrix : 0 mu s
[OGL LOG][Proc: 0]init_precond : 47 mu s
[OGL LOG][Proc: 0]generate_solver : 1 mu s
[OGL LOG][Proc: 0]solve : 62801300 mu s
[OGL LOG][Proc: 0]copy_x_back : 227780 mu s
[OGL LOG][lduLduBase.H:347] Time per iteration 16414 [mu s] Time per iteration and DOF 0.131312 [ns]
nonecudaGKOCG:  Solving for p, Initial residual = 0.0498788, Final residual = 4.49628e-05, No Iterations 3826
linear solve p 93390226
time step continuity errors : sum local = 5.1603e-11, global = -1.75271e-23, cumulative = -2.12519e-23
[OGL LOG][Proc: 0]global_index_init : 7 mu s
[OGL LOG][Proc: 0]global_index_init : 0 mu s
[OGL LOG][Proc: 0]update_host_matrix_data : 1555943 mu s
[OGL LOG][Proc: 0]gather_global_matrix : 0 mu s
[OGL LOG][Proc: 0]init_precond : 48 mu s
[OGL LOG][Proc: 0]generate_solver : 2 mu s
[OGL LOG][Proc: 0]solve : 62809764 mu s
[OGL LOG][Proc: 0]copy_x_back : 227800 mu s
[OGL LOG][lduLduBase.H:347] Time per iteration 16416 [mu s] Time per iteration and DOF 0.131328 [ns]
nonecudaGKOCG:  Solving for p, Initial residual = 0.0422968, Final residual = 4.33959e-05, No Iterations 3826
linear solve p 93387408
time step continuity errors : sum local = 4.98113e-11, global = -5.83132e-23, cumulative = -7.95651e-23
ExecutionTime = 10690.6 s  ClockTime = 10727 s

Time = 0.00022

Courant Number mean: 0.00357377 max: 0.0956344
DILUPBiCGStab:  Solving for Ux, Initial residual = 0.0139267, Final residual = 1.34664e-05, No Iterations 5
DILUPBiCGStab:  Solving for Uy, Initial residual = 0.024021, Final residual = 6.23673e-06, No Iterations 5
DILUPBiCGStab:  Solving for Uz, Initial residual = 0.042742, Final residual = 4.31783e-05, No Iterations 5
linear solve U 84028967
[OGL LOG][Proc: 0]global_index_init : 6 mu s
[OGL LOG][Proc: 0]global_index_init : 0 mu s
[OGL LOG][Proc: 0]update_host_matrix_data : 1554972 mu s
[OGL LOG][Proc: 0]gather_global_matrix : 0 mu s
[OGL LOG][Proc: 0]init_precond : 49 mu s
[OGL LOG][Proc: 0]generate_solver : 1 mu s
[OGL LOG][Proc: 0]solve : 62799863 mu s
[OGL LOG][Proc: 0]copy_x_back : 227732 mu s
[OGL LOG][lduLduBase.H:347] Time per iteration 16413 [mu s] Time per iteration and DOF 0.131304 [ns]
nonecudaGKOCG:  Solving for p, Initial residual = 0.0397968, Final residual = 4.17421e-05, No Iterations 3826
linear solve p 93372077
time step continuity errors : sum local = 4.75978e-11, global = 8.15758e-25, cumulative = -7.87493e-23
[OGL LOG][Proc: 0]global_index_init : 7 mu s
[OGL LOG][Proc: 0]global_index_init : 1 mu s
[OGL LOG][Proc: 0]update_host_matrix_data : 1560005 mu s
[OGL LOG][Proc: 0]gather_global_matrix : 0 mu s
[OGL LOG][Proc: 0]init_precond : 47 mu s
[OGL LOG][Proc: 0]generate_solver : 1 mu s
[OGL LOG][Proc: 0]solve : 62795791 mu s
[OGL LOG][Proc: 0]copy_x_back : 227626 mu s
[OGL LOG][lduLduBase.H:347] Time per iteration 16412 [mu s] Time per iteration and DOF 0.131296 [ns]
nonecudaGKOCG:  Solving for p, Initial residual = 0.0337697, Final residual = 4.17125e-05, No Iterations 3826
linear solve p 93374542
time step continuity errors : sum local = 4.75684e-11, global = -7.67937e-25, cumulative = -7.95173e-23
ExecutionTime = 11017.1 s  ClockTime = 11056 s

Time = 0.00024

Courant Number mean: 0.00373265 max: 0.095842
DILUPBiCGStab:  Solving for Ux, Initial residual = 0.012784, Final residual = 1.10122e-05, No Iterations 5
DILUPBiCGStab:  Solving for Uy, Initial residual = 0.0217476, Final residual = 4.04567e-06, No Iterations 5
DILUPBiCGStab:  Solving for Uz, Initial residual = 0.0392448, Final residual = 3.45184e-05, No Iterations 5
linear solve U 84021232
[OGL LOG][Proc: 0]global_index_init : 6 mu s
[OGL LOG][Proc: 0]global_index_init : 2 mu s
[OGL LOG][Proc: 0]update_host_matrix_data : 1554744 mu s
[OGL LOG][Proc: 0]gather_global_matrix : 0 mu s
[OGL LOG][Proc: 0]init_precond : 48 mu s
[OGL LOG][Proc: 0]generate_solver : 1 mu s
[OGL LOG][Proc: 0]solve : 60384743 mu s
[OGL LOG][Proc: 0]copy_x_back : 227271 mu s
[OGL LOG][lduLduBase.H:347] Time per iteration 16440 [mu s] Time per iteration and DOF 0.131520 [ns]
nonecudaGKOCG:  Solving for p, Initial residual = 0.0284825, Final residual = 9.21047e-05, No Iterations 3673
linear solve p 90976439
time step continuity errors : sum local = 1.04521e-10, global = -1.62799e-23, cumulative = -9.57972e-23
[OGL LOG][Proc: 0]global_index_init : 9 mu s
[OGL LOG][Proc: 0]global_index_init : 0 mu s
[OGL LOG][Proc: 0]update_host_matrix_data : 1555172 mu s
[OGL LOG][Proc: 0]gather_global_matrix : 0 mu s
[OGL LOG][Proc: 0]init_precond : 48 mu s
[OGL LOG][Proc: 0]generate_solver : 1 mu s
[OGL LOG][Proc: 0]solve : 60071907 mu s
[OGL LOG][Proc: 0]copy_x_back : 227634 mu s
[OGL LOG][lduLduBase.H:347] Time per iteration 16453 [mu s] Time per iteration and DOF 0.131624 [ns]
nonecudaGKOCG:  Solving for p, Initial residual = 0.0250343, Final residual = 8.8796e-05, No Iterations 3651
linear solve p 90631857
time step continuity errors : sum local = 1.00816e-10, global = -9.89162e-23, cumulative = -1.94713e-22
ExecutionTime = 11338.5 s  ClockTime = 11380 s

Time = 0.00026

Courant Number mean: 0.00388271 max: 0.0960213
DILUPBiCGStab:  Solving for Ux, Initial residual = 0.0118169, Final residual = 9.02344e-06, No Iterations 5
DILUPBiCGStab:  Solving for Uy, Initial residual = 0.019866, Final residual = 3.60881e-06, No Iterations 5
DILUPBiCGStab:  Solving for Uz, Initial residual = 0.0359194, Final residual = 2.7862e-05, No Iterations 5
linear solve U 83999014
[OGL LOG][Proc: 0]global_index_init : 7 mu s
[OGL LOG][Proc: 0]global_index_init : 0 mu s
[OGL LOG][Proc: 0]update_host_matrix_data : 1556719 mu s
[OGL LOG][Proc: 0]gather_global_matrix : 0 mu s
[OGL LOG][Proc: 0]init_precond : 47 mu s
[OGL LOG][Proc: 0]generate_solver : 1 mu s
[OGL LOG][Proc: 0]solve : 60038971 mu s
[OGL LOG][Proc: 0]copy_x_back : 227323 mu s
[OGL LOG][lduLduBase.H:347] Time per iteration 16444 [mu s] Time per iteration and DOF 0.131552 [ns]
nonecudaGKOCG:  Solving for p, Initial residual = 0.0237695, Final residual = 7.42736e-05, No Iterations 3651
linear solve p 90852536
time step continuity errors : sum local = 8.40533e-11, global = 1.20088e-23, cumulative = -1.82705e-22
[OGL LOG][Proc: 0]global_index_init : 7 mu s
[OGL LOG][Proc: 0]global_index_init : 0 mu s
[OGL LOG][Proc: 0]update_host_matrix_data : 1555446 mu s
[OGL LOG][Proc: 0]gather_global_matrix : 0 mu s
[OGL LOG][Proc: 0]init_precond : 47 mu s
[OGL LOG][Proc: 0]generate_solver : 1 mu s
[OGL LOG][Proc: 0]solve : 60046855 mu s
[OGL LOG][Proc: 0]copy_x_back : 228212 mu s
[OGL LOG][lduLduBase.H:347] Time per iteration 16446 [mu s] Time per iteration and DOF 0.131568 [ns]
nonecudaGKOCG:  Solving for p, Initial residual = 0.0209087, Final residual = 6.90934e-05, No Iterations 3651
linear solve p 90636467
time step continuity errors : sum local = 7.82047e-11, global = 7.34891e-23, cumulative = -1.09216e-22
ExecutionTime = 11659.6 s  ClockTime = 11704 s

Time = 0.00028

Courant Number mean: 0.00402502 max: 0.0961782
DILUPBiCGStab:  Solving for Ux, Initial residual = 0.0109916, Final residual = 7.60097e-06, No Iterations 5
DILUPBiCGStab:  Solving for Uy, Initial residual = 0.0182788, Final residual = 2.69141e-06, No Iterations 5
DILUPBiCGStab:  Solving for Uz, Initial residual = 0.0334884, Final residual = 2.34645e-05, No Iterations 5
linear solve U 84045581
[OGL LOG][Proc: 0]global_index_init : 7 mu s
[OGL LOG][Proc: 0]global_index_init : 0 mu s
[OGL LOG][Proc: 0]update_host_matrix_data : 1554317 mu s
[OGL LOG][Proc: 0]gather_global_matrix : 0 mu s
[OGL LOG][Proc: 0]init_precond : 47 mu s
[OGL LOG][Proc: 0]generate_solver : 1 mu s
[OGL LOG][Proc: 0]solve : 60051793 mu s
[OGL LOG][Proc: 0]copy_x_back : 227486 mu s
[OGL LOG][lduLduBase.H:347] Time per iteration 16448 [mu s] Time per iteration and DOF 0.131584 [ns]
nonecudaGKOCG:  Solving for p, Initial residual = 0.0187721, Final residual = 7.81523e-05, No Iterations 3651
linear solve p 90632587
time step continuity errors : sum local = 8.83553e-11, global = -9.58395e-24, cumulative = -1.18799e-22
[OGL LOG][Proc: 0]global_index_init : 8 mu s
[OGL LOG][Proc: 0]global_index_init : 0 mu s
[OGL LOG][Proc: 0]update_host_matrix_data : 1556977 mu s
[OGL LOG][Proc: 0]gather_global_matrix : 0 mu s
[OGL LOG][Proc: 0]init_precond : 47 mu s
[OGL LOG][Proc: 0]generate_solver : 2 mu s
[OGL LOG][Proc: 0]solve : 60068820 mu s
[OGL LOG][Proc: 0]copy_x_back : 227970 mu s
[OGL LOG][lduLduBase.H:347] Time per iteration 16452 [mu s] Time per iteration and DOF 0.131616 [ns]
nonecudaGKOCG:  Solving for p, Initial residual = 0.0170319, Final residual = 7.31455e-05, No Iterations 3651
linear solve p 90659968
time step continuity errors : sum local = 8.27278e-11, global = 6.33585e-25, cumulative = -1.18166e-22
ExecutionTime = 11980.7 s  ClockTime = 12027 s

Time = 0.0003

Courant Number mean: 0.00416047 max: 0.0963169
DILUPBiCGStab:  Solving for Ux, Initial residual = 0.0102753, Final residual = 6.44823e-06, No Iterations 5
DILUPBiCGStab:  Solving for Uy, Initial residual = 0.0169248, Final residual = 2.37606e-06, No Iterations 5
DILUPBiCGStab:  Solving for Uz, Initial residual = 0.0311808, Final residual = 1.96826e-05, No Iterations 5
linear solve U 84071731
[OGL LOG][Proc: 0]global_index_init : 7 mu s
[OGL LOG][Proc: 0]global_index_init : 0 mu s
[OGL LOG][Proc: 0]update_host_matrix_data : 1555110 mu s
[OGL LOG][Proc: 0]gather_global_matrix : 0 mu s
[OGL LOG][Proc: 0]init_precond : 47 mu s
[OGL LOG][Proc: 0]generate_solver : 1 mu s
[OGL LOG][Proc: 0]solve : 60062631 mu s
[OGL LOG][Proc: 0]copy_x_back : 227593 mu s
[OGL LOG][lduLduBase.H:347] Time per iteration 16451 [mu s] Time per iteration and DOF 0.131608 [ns]
nonecudaGKOCG:  Solving for p, Initial residual = 0.0162706, Final residual = 7.00858e-05, No Iterations 3651
linear solve p 90640583
time step continuity errors : sum local = 7.90955e-11, global = -5.16482e-24, cumulative = -1.23331e-22
[OGL LOG][Proc: 0]global_index_init : 7 mu s
[OGL LOG][Proc: 0]global_index_init : 0 mu s
[OGL LOG][Proc: 0]update_host_matrix_data : 1556930 mu s
[OGL LOG][Proc: 0]gather_global_matrix : 0 mu s
[OGL LOG][Proc: 0]init_precond : 50 mu s
[OGL LOG][Proc: 0]generate_solver : 1 mu s
[OGL LOG][Proc: 0]solve : 60064295 mu s
[OGL LOG][Proc: 0]copy_x_back : 228626 mu s
[OGL LOG][lduLduBase.H:347] Time per iteration 16451 [mu s] Time per iteration and DOF 0.131608 [ns]
nonecudaGKOCG:  Solving for p, Initial residual = 0.0148154, Final residual = 6.27501e-05, No Iterations 3651
linear solve p 90653029
time step continuity errors : sum local = 7.08333e-11, global = -5.74063e-24, cumulative = -1.29071e-22
ExecutionTime = 12301.9 s  ClockTime = 12351 s

Time = 0.00032

Courant Number mean: 0.00428992 max: 0.0964408
DILUPBiCGStab:  Solving for Ux, Initial residual = 0.00964943, Final residual = 5.55543e-06, No Iterations 5
DILUPBiCGStab:  Solving for Uy, Initial residual = 0.0157539, Final residual = 1.9366e-06, No Iterations 5
DILUPBiCGStab:  Solving for Uz, Initial residual = 0.0293044, Final residual = 1.69216e-05, No Iterations 5
linear solve U 84047465
[OGL LOG][Proc: 0]global_index_init : 6 mu s
[OGL LOG][Proc: 0]global_index_init : 0 mu s
[OGL LOG][Proc: 0]update_host_matrix_data : 1554837 mu s
[OGL LOG][Proc: 0]gather_global_matrix : 0 mu s
[OGL LOG][Proc: 0]init_precond : 49 mu s
[OGL LOG][Proc: 0]generate_solver : 1 mu s
[OGL LOG][Proc: 0]solve : 60060365 mu s
[OGL LOG][Proc: 0]copy_x_back : 227777 mu s
[OGL LOG][lduLduBase.H:347] Time per iteration 16450 [mu s] Time per iteration and DOF 0.131600 [ns]
nonecudaGKOCG:  Solving for p, Initial residual = 0.013822, Final residual = 5.51948e-05, No Iterations 3651
linear solve p 90663333
time step continuity errors : sum local = 6.231e-11, global = -6.56029e-24, cumulative = -1.35632e-22
[OGL LOG][Proc: 0]global_index_init : 7 mu s
[OGL LOG][Proc: 0]global_index_init : 0 mu s
[OGL LOG][Proc: 0]update_host_matrix_data : 1554843 mu s
[OGL LOG][Proc: 0]gather_global_matrix : 0 mu s
[OGL LOG][Proc: 0]init_precond : 45 mu s
[OGL LOG][Proc: 0]generate_solver : 1 mu s
[OGL LOG][Proc: 0]solve : 60058295 mu s
[OGL LOG][Proc: 0]copy_x_back : 227048 mu s
[OGL LOG][lduLduBase.H:347] Time per iteration 16449 [mu s] Time per iteration and DOF 0.131592 [ns]
nonecudaGKOCG:  Solving for p, Initial residual = 0.0128411, Final residual = 3.83504e-05, No Iterations 3651
linear solve p 90641541
time step continuity errors : sum local = 4.33075e-11, global = -3.80937e-23, cumulative = -1.73725e-22
ExecutionTime = 12622.9 s  ClockTime = 12674 s

Time = 0.00034

Courant Number mean: 0.00441392 max: 0.0965522
DILUPBiCGStab:  Solving for Ux, Initial residual = 0.00909606, Final residual = 4.82999e-06, No Iterations 5
DILUPBiCGStab:  Solving for Uy, Initial residual = 0.014733, Final residual = 1.70797e-06, No Iterations 5
DILUPBiCGStab:  Solving for Uz, Initial residual = 0.0276397, Final residual = 1.4591e-05, No Iterations 5
linear solve U 84051588
[OGL LOG][Proc: 0]global_index_init : 8 mu s
[OGL LOG][Proc: 0]global_index_init : 1 mu s
[OGL LOG][Proc: 0]update_host_matrix_data : 1555682 mu s
[OGL LOG][Proc: 0]gather_global_matrix : 0 mu s
[OGL LOG][Proc: 0]init_precond : 47 mu s
[OGL LOG][Proc: 0]generate_solver : 1 mu s
[OGL LOG][Proc: 0]solve : 60068525 mu s
[OGL LOG][Proc: 0]copy_x_back : 228079 mu s
[OGL LOG][lduLduBase.H:347] Time per iteration 16452 [mu s] Time per iteration and DOF 0.131616 [ns]
nonecudaGKOCG:  Solving for p, Initial residual = 0.01215, Final residual = 6.84144e-05, No Iterations 3651
linear solve p 90646247
time step continuity errors : sum local = 7.71539e-11, global = 9.38887e-23, cumulative = -7.98366e-23
[OGL LOG][Proc: 0]global_index_init : 8 mu s
[OGL LOG][Proc: 0]global_index_init : 0 mu s
[OGL LOG][Proc: 0]update_host_matrix_data : 1555736 mu s
[OGL LOG][Proc: 0]gather_global_matrix : 0 mu s
[OGL LOG][Proc: 0]init_precond : 43 mu s
[OGL LOG][Proc: 0]generate_solver : 1 mu s
[OGL LOG][Proc: 0]solve : 60074777 mu s
[OGL LOG][Proc: 0]copy_x_back : 228203 mu s
[OGL LOG][lduLduBase.H:347] Time per iteration 16454 [mu s] Time per iteration and DOF 0.131632 [ns]
nonecudaGKOCG:  Solving for p, Initial residual = 0.0113726, Final residual = 5.57468e-05, No Iterations 3651
linear solve p 90665401
time step continuity errors : sum local = 6.28843e-11, global = -5.41577e-23, cumulative = -1.33994e-22
ExecutionTime = 12943.9 s  ClockTime = 12998 s

Time = 0.00036

Courant Number mean: 0.00453298 max: 0.0966532
DILUPBiCGStab:  Solving for Ux, Initial residual = 0.00860413, Final residual = 4.24768e-06, No Iterations 5
DILUPBiCGStab:  Solving for Uy, Initial residual = 0.0138339, Final residual = 1.46203e-06, No Iterations 5
DILUPBiCGStab:  Solving for Uz, Initial residual = 0.026018, Final residual = 1.26649e-05, No Iterations 5
linear solve U 84067070
[OGL LOG][Proc: 0]global_index_init : 7 mu s
[OGL LOG][Proc: 0]global_index_init : 0 mu s
[OGL LOG][Proc: 0]update_host_matrix_data : 1554635 mu s
[OGL LOG][Proc: 0]gather_global_matrix : 0 mu s
[OGL LOG][Proc: 0]init_precond : 48 mu s
[OGL LOG][Proc: 0]generate_solver : 1 mu s
[OGL LOG][Proc: 0]solve : 60102954 mu s
[OGL LOG][Proc: 0]copy_x_back : 227554 mu s
[OGL LOG][lduLduBase.H:347] Time per iteration 16462 [mu s] Time per iteration and DOF 0.131696 [ns]
nonecudaGKOCG:  Solving for p, Initial residual = 0.0110271, Final residual = 5.87228e-05, No Iterations 3651
linear solve p 90685568
time step continuity errors : sum local = 6.62659e-11, global = 2.88678e-23, cumulative = -1.05126e-22
[OGL LOG][Proc: 0]global_index_init : 7 mu s
[OGL LOG][Proc: 0]global_index_init : 3 mu s
[OGL LOG][Proc: 0]update_host_matrix_data : 1556111 mu s
[OGL LOG][Proc: 0]gather_global_matrix : 0 mu s
[OGL LOG][Proc: 0]init_precond : 50 mu s
[OGL LOG][Proc: 0]generate_solver : 2 mu s
[OGL LOG][Proc: 0]solve : 60076591 mu s
[OGL LOG][Proc: 0]copy_x_back : 227453 mu s
[OGL LOG][lduLduBase.H:347] Time per iteration 16454 [mu s] Time per iteration and DOF 0.131632 [ns]
nonecudaGKOCG:  Solving for p, Initial residual = 0.0104194, Final residual = 4.77402e-05, No Iterations 3651
linear solve p 90648945
time step continuity errors : sum local = 5.38866e-11, global = -4.14849e-23, cumulative = -1.46611e-22
ExecutionTime = 13265 s  ClockTime = 13321 s

Time = 0.00038

Courant Number mean: 0.00464763 max: 0.0967452
DILUPBiCGStab:  Solving for Ux, Initial residual = 0.00816296, Final residual = 3.76799e-06, No Iterations 5
DILUPBiCGStab:  Solving for Uy, Initial residual = 0.0130367, Final residual = 1.29652e-06, No Iterations 5
DILUPBiCGStab:  Solving for Uz, Initial residual = 0.0246634, Final residual = 1.11267e-05, No Iterations 5
linear solve U 84008352
[OGL LOG][Proc: 0]global_index_init : 8 mu s
[OGL LOG][Proc: 0]global_index_init : 0 mu s
[OGL LOG][Proc: 0]update_host_matrix_data : 1555864 mu s
[OGL LOG][Proc: 0]gather_global_matrix : 0 mu s
[OGL LOG][Proc: 0]init_precond : 47 mu s
[OGL LOG][Proc: 0]generate_solver : 2 mu s
[OGL LOG][Proc: 0]solve : 48602445 mu s
[OGL LOG][Proc: 0]copy_x_back : 227626 mu s
[OGL LOG][lduLduBase.H:347] Time per iteration 16638 [mu s] Time per iteration and DOF 0.133104 [ns]
nonecudaGKOCG:  Solving for p, Initial residual = 0.00999735, Final residual = 9.19881e-05, No Iterations 2921
linear solve p 79180115
time step continuity errors : sum local = 1.04243e-10, global = -1.24173e-23, cumulative = -1.59029e-22
[OGL LOG][Proc: 0]global_index_init : 7 mu s
[OGL LOG][Proc: 0]global_index_init : 2 mu s
[OGL LOG][Proc: 0]update_host_matrix_data : 1562247 mu s
[OGL LOG][Proc: 0]gather_global_matrix : 0 mu s
[OGL LOG][Proc: 0]init_precond : 48 mu s
[OGL LOG][Proc: 0]generate_solver : 1 mu s
[OGL LOG][Proc: 0]solve : 41023406 mu s
[OGL LOG][Proc: 0]copy_x_back : 227318 mu s
[OGL LOG][lduLduBase.H:347] Time per iteration 16833 [mu s] Time per iteration and DOF 0.134664 [ns]
nonecudaGKOCG:  Solving for p, Initial residual = 0.00949187, Final residual = 1.72309e-06, No Iterations 2437
linear solve p 71592122
time step continuity errors : sum local = 2.07299e-12, global = -1.1184e-23, cumulative = -1.70213e-22
ExecutionTime = 13556 s  ClockTime = 13614 s

Time = 0.0004

Courant Number mean: 0.00475815 max: 0.0968295
DILUPBiCGStab:  Solving for Ux, Initial residual = 0.00776528, Final residual = 3.37462e-06, No Iterations 5
DILUPBiCGStab:  Solving for Uy, Initial residual = 0.0123251, Final residual = 1.14092e-06, No Iterations 5
DILUPBiCGStab:  Solving for Uz, Initial residual = 0.0236558, Final residual = 1.01942e-05, No Iterations 5
linear solve U 84065835
[OGL LOG][Proc: 0]global_index_init : 8 mu s
[OGL LOG][Proc: 0]global_index_init : 0 mu s
[OGL LOG][Proc: 0]update_host_matrix_data : 1554931 mu s
[OGL LOG][Proc: 0]gather_global_matrix : 0 mu s
[OGL LOG][Proc: 0]init_precond : 49 mu s
[OGL LOG][Proc: 0]generate_solver : 2 mu s
[OGL LOG][Proc: 0]solve : 34745497 mu s
[OGL LOG][Proc: 0]copy_x_back : 227139 mu s
[OGL LOG][lduLduBase.H:347] Time per iteration 17048 [mu s] Time per iteration and DOF 0.136384 [ns]
nonecudaGKOCG:  Solving for p, Initial residual = 0.00915795, Final residual = 3.85153e-06, No Iterations 2038
linear solve p 65303345
time step continuity errors : sum local = 4.35853e-12, global = -6.11919e-23, cumulative = -2.31405e-22
[OGL LOG][Proc: 0]global_index_init : 7 mu s
[OGL LOG][Proc: 0]global_index_init : 0 mu s
[OGL LOG][Proc: 0]update_host_matrix_data : 1557643 mu s
[OGL LOG][Proc: 0]gather_global_matrix : 0 mu s
[OGL LOG][Proc: 0]init_precond : 49 mu s
[OGL LOG][Proc: 0]generate_solver : 1 mu s
[OGL LOG][Proc: 0]solve : 29469682 mu s
[OGL LOG][Proc: 0]copy_x_back : 227614 mu s
[OGL LOG][lduLduBase.H:347] Time per iteration 17314 [mu s] Time per iteration and DOF 0.138512 [ns]
nonecudaGKOCG:  Solving for p, Initial residual = 0.00873301, Final residual = 2.74994e-05, No Iterations 1702
linear solve p 60270092
time step continuity errors : sum local = 3.10387e-11, global = 3.26227e-23, cumulative = -1.98782e-22
ExecutionTime = 13822.4 s  ClockTime = 13882 s

End

Finalising parallel run
================================================================================

============================= JOB FEEDBACK =============================

Job ID: 1749036
Cluster: hk
User/Group: eq4036/hk-project-test-fine
State: COMPLETED (exit code 0)
Partition: accelerated
Nodes: 1
Cores per node: 152
Nodelist: hkn0727
CPU Utilized: 07:56:20
CPU Efficiency: 2.59% of 12-18:21:52 core-walltime
Job Wall-clock time: 02:00:56
Starttime: Sun May 29 21:34:58 2022
Endtime: Sun May 29 23:35:54 2022
Memory Utilized: 184.96 GB
Memory Efficiency: 37.88% of 488.28 GB
Energy Consumed: 6113670 Joule / 1698.24166666667 Watthours
Average node power draw: 842.567530319735 Watt
slurmstepd: error: *** JOB 1749006 ON hkn0423 CANCELLED AT 2022-05-29T21:31:22 ***

============================= JOB FEEDBACK =============================

Job ID: 1749006
Cluster: hk
User/Group: eq4036/hk-project-test-fine
State: CANCELLED (exit code 0)
Partition: accelerated
Nodes: 1
Cores per node: 152
Nodelist: hkn0423
CPU Utilized: 00:00:00
CPU Efficiency: 0.00% of 10:02:56 core-walltime
Job Wall-clock time: 00:03:58
Starttime: Sun May 29 21:27:24 2022
Endtime: Sun May 29 21:31:22 2022
Memory Utilized: 103.18 GB
Memory Efficiency: 21.13% of 488.28 GB
Energy Consumed: 144872 Joule / 40.2422222222222 Watthours
Average node power draw: 608.705882352941 Watt
hash: e75dfc49d96d8f270d79933ae04a067e
/*---------------------------------------------------------------------------*\
| =========                 |                                                 |
| \\      /  F ield         | OpenFOAM: The Open Source CFD Toolbox           |
|  \\    /   O peration     | Version:  2112                                  |
|   \\  /    A nd           | Website:  www.openfoam.com                      |
|    \\/     M anipulation  |                                                 |
\*---------------------------------------------------------------------------*/
Build  : d44c8318f0-20220111 OPENFOAM=2112 version=v2112
Arch   : "LSB;label=32;scalar=64"
Exec   : icoFoam -parallel
Date   : May 29 2022
Time   : 21:35:21
Host   : hkn0727.localdomain
PID    : 2030570
I/O    : uncollated
Case   : /hkfs/work/workspace/scratch/eq4036-lidDrivenCavity/simple/Variation_mesh/500/Variation_matrix_solver/CG_NoPrecond_CUDA/Variation_mpiRank_gko/4/base
nProcs : 4
Hosts  :
(
    (hkn0727.localdomain 4)
)
Pstream initialized with:
    floatTransfer      : 0
    nProcsSimpleSum    : 0
    commsType          : nonBlocking
    polling iterations : 0
trapFpe: Floating point exception trapping enabled (FOAM_SIGFPE).
fileModificationChecking : Monitoring run-time modified files using timeStampMaster (fileModificationSkew 5, maxFileModificationPolls 20)
allowSystemOperations : Allowing user-supplied system call operations

// * * * * * * * * * * * * * * * * * * * * * * * * * * * * * * * * * * * * * //
Create time

Create mesh for time = 0


PISO: Operating solver in PISO mode

Reading transportProperties

Reading field p

Reading field U

Reading/calculating face flux field phi


Starting time loop

Time = 2e-05

Courant Number mean: 0 max: 0
DILUPBiCGStab:  Solving for Ux, Initial residual = 1, Final residual = 0.00221092, No Iterations 5
DILUPBiCGStab:  Solving for Uy:  solution singularity
DILUPBiCGStab:  Solving for Uz:  solution singularity
linear solve U 21796183
[OGL LOG][Proc: 0]global_index_init : 25 mu s
[OGL LOG][Proc: 0]global_index_init : 1 mu s
[OGL LOG][Proc: 0]init_host_sparsity_pattern : 3624444928 mu s
[OGL LOG][Proc: 0]update_host_matrix_data : 796166 mu s
[OGL LOG][Proc: 0]convert_coo_to_csr : 3306180 mu s
[OGL LOG][lduLduBase.H:149] Initialising OGL Version  0ff6b71 HEAD 
	 Ginkgoversion1.5.0(develop)
	MPI is GPU aware: 0
[OGL LOG][Proc: 0]gather_global_matrix : 5 mu s
[OGL LOG][Proc: 0]init_precond : 78 mu s
[OGL LOG][Proc: 0]generate_solver : 18 mu s
[OGL LOG][Proc: 0]solve : 38020180 mu s
[OGL LOG][Proc: 0]copy_x_back : 123464 mu s
[OGL LOG][lduLduBase.H:347] Time per iteration 9250 [mu s] Time per iteration and DOF 0.074000 [ns]
nonecudaGKOCG:  Solving for p, Initial residual = 1, Final residual = 9.99748e-05, No Iterations 4110
linear solve p -609718457
time step continuity errors : sum local = 1.73242e-10, global = 1.81448e-22, cumulative = 1.81448e-22
[OGL LOG][Proc: 0]global_index_init : 31 mu s
[OGL LOG][Proc: 0]global_index_init : 1 mu s
[OGL LOG][Proc: 0]update_host_matrix_data : 840383 mu s
[OGL LOG][Proc: 0]gather_global_matrix : 0 mu s
[OGL LOG][Proc: 0]init_precond : 59 mu s
[OGL LOG][Proc: 0]generate_solver : 1 mu s
[OGL LOG][Proc: 0]solve : 36650764 mu s
[OGL LOG][Proc: 0]copy_x_back : 121306 mu s
[OGL LOG][lduLduBase.H:347] Time per iteration 8937 [mu s] Time per iteration and DOF 0.071496 [ns]
nonecudaGKOCG:  Solving for p, Initial residual = 0.736007, Final residual = 7.70976e-05, No Iterations 4101
linear solve p 53799269
time step continuity errors : sum local = 1.76714e-10, global = -1.49614e-23, cumulative = 1.66487e-22
ExecutionTime = 3889.62 s  ClockTime = 3899 s

Time = 4e-05

Courant Number mean: 0.00105578 max: 0.0776342
DILUPBiCGStab:  Solving for Ux, Initial residual = 0.150267, Final residual = 0.00132891, No Iterations 5
DILUPBiCGStab:  Solving for Uy, Initial residual = 0.356029, Final residual = 0.00130322, No Iterations 5
DILUPBiCGStab:  Solving for Uz, Initial residual = 0.997766, Final residual = 0.00574316, No Iterations 5
linear solve U 44454018
[OGL LOG][Proc: 0]global_index_init : 10 mu s
[OGL LOG][Proc: 0]global_index_init : 1 mu s
[OGL LOG][Proc: 0]update_host_matrix_data : 844739 mu s
[OGL LOG][Proc: 0]gather_global_matrix : 0 mu s
[OGL LOG][Proc: 0]init_precond : 39 mu s
[OGL LOG][Proc: 0]generate_solver : 2 mu s
[OGL LOG][Proc: 0]solve : 36707760 mu s
[OGL LOG][Proc: 0]copy_x_back : 122410 mu s
[OGL LOG][lduLduBase.H:347] Time per iteration 8950 [mu s] Time per iteration and DOF 0.071600 [ns]
nonecudaGKOCG:  Solving for p, Initial residual = 0.700849, Final residual = 4.41172e-05, No Iterations 4101
linear solve p 53742874
time step continuity errors : sum local = 1.16629e-10, global = 3.98461e-23, cumulative = 2.06333e-22
[OGL LOG][Proc: 0]global_index_init : 7 mu s
[OGL LOG][Proc: 0]global_index_init : 1 mu s
[OGL LOG][Proc: 0]update_host_matrix_data : 841570 mu s
[OGL LOG][Proc: 0]gather_global_matrix : 0 mu s
[OGL LOG][Proc: 0]init_precond : 45 mu s
[OGL LOG][Proc: 0]generate_solver : 1 mu s
[OGL LOG][Proc: 0]solve : 36853490 mu s
[OGL LOG][Proc: 0]copy_x_back : 122294 mu s
[OGL LOG][lduLduBase.H:347] Time per iteration 8986 [mu s] Time per iteration and DOF 0.071888 [ns]
nonecudaGKOCG:  Solving for p, Initial residual = 0.633716, Final residual = 4.03944e-05, No Iterations 4101
linear solve p 53912873
time step continuity errors : sum local = 1.08423e-10, global = -2.60391e-23, cumulative = 1.80293e-22
ExecutionTime = 4068.16 s  ClockTime = 4082 s

Time = 6e-05

Courant Number mean: 0.00160706 max: 0.0884744
DILUPBiCGStab:  Solving for Ux, Initial residual = 0.0623704, Final residual = 0.000361956, No Iterations 5
DILUPBiCGStab:  Solving for Uy, Initial residual = 0.140295, Final residual = 0.000268613, No Iterations 5
DILUPBiCGStab:  Solving for Uz, Initial residual = 0.660857, Final residual = 0.00415346, No Iterations 5
linear solve U 44418603
[OGL LOG][Proc: 0]global_index_init : 8 mu s
[OGL LOG][Proc: 0]global_index_init : 1 mu s
[OGL LOG][Proc: 0]update_host_matrix_data : 840854 mu s
[OGL LOG][Proc: 0]gather_global_matrix : 0 mu s
[OGL LOG][Proc: 0]init_precond : 41 mu s
[OGL LOG][Proc: 0]generate_solver : 1 mu s
[OGL LOG][Proc: 0]solve : 35421734 mu s
[OGL LOG][Proc: 0]copy_x_back : 122388 mu s
[OGL LOG][lduLduBase.H:347] Time per iteration 8997 [mu s] Time per iteration and DOF 0.071976 [ns]
nonecudaGKOCG:  Solving for p, Initial residual = 0.651643, Final residual = 7.80275e-05, No Iterations 3937
linear solve p 52428869
time step continuity errors : sum local = 1.52041e-10, global = 6.0159e-24, cumulative = 1.86309e-22
[OGL LOG][Proc: 0]global_index_init : 7 mu s
[OGL LOG][Proc: 0]global_index_init : 0 mu s
[OGL LOG][Proc: 0]update_host_matrix_data : 839872 mu s
[OGL LOG][Proc: 0]gather_global_matrix : 0 mu s
[OGL LOG][Proc: 0]init_precond : 42 mu s
[OGL LOG][Proc: 0]generate_solver : 1 mu s
[OGL LOG][Proc: 0]solve : 35008264 mu s
[OGL LOG][Proc: 0]copy_x_back : 122079 mu s
[OGL LOG][lduLduBase.H:347] Time per iteration 8917 [mu s] Time per iteration and DOF 0.071336 [ns]
nonecudaGKOCG:  Solving for p, Initial residual = 0.598958, Final residual = 7.78556e-05, No Iterations 3926
linear solve p 52202726
time step continuity errors : sum local = 1.48404e-10, global = -1.65399e-23, cumulative = 1.69769e-22
ExecutionTime = 4243.88 s  ClockTime = 4262 s

Time = 8e-05

Courant Number mean: 0.00199289 max: 0.0913809
DILUPBiCGStab:  Solving for Ux, Initial residual = 0.0414952, Final residual = 0.000170925, No Iterations 5
DILUPBiCGStab:  Solving for Uy, Initial residual = 0.0887196, Final residual = 0.000153702, No Iterations 5
DILUPBiCGStab:  Solving for Uz, Initial residual = 0.161489, Final residual = 0.000703139, No Iterations 5
linear solve U 44487007
[OGL LOG][Proc: 0]global_index_init : 8 mu s
[OGL LOG][Proc: 0]global_index_init : 1 mu s
[OGL LOG][Proc: 0]update_host_matrix_data : 842583 mu s
[OGL LOG][Proc: 0]gather_global_matrix : 0 mu s
[OGL LOG][Proc: 0]init_precond : 39 mu s
[OGL LOG][Proc: 0]generate_solver : 2 mu s
[OGL LOG][Proc: 0]solve : 35137288 mu s
[OGL LOG][Proc: 0]copy_x_back : 122119 mu s
[OGL LOG][lduLduBase.H:347] Time per iteration 8949 [mu s] Time per iteration and DOF 0.071592 [ns]
nonecudaGKOCG:  Solving for p, Initial residual = 0.425513, Final residual = 3.77876e-05, No Iterations 3926
linear solve p 52189405
time step continuity errors : sum local = 6.08667e-11, global = 2.73607e-23, cumulative = 1.9713e-22
[OGL LOG][Proc: 0]global_index_init : 7 mu s
[OGL LOG][Proc: 0]global_index_init : 0 mu s
[OGL LOG][Proc: 0]update_host_matrix_data : 841506 mu s
[OGL LOG][Proc: 0]gather_global_matrix : 0 mu s
[OGL LOG][Proc: 0]init_precond : 44 mu s
[OGL LOG][Proc: 0]generate_solver : 2 mu s
[OGL LOG][Proc: 0]solve : 35267879 mu s
[OGL LOG][Proc: 0]copy_x_back : 121690 mu s
[OGL LOG][lduLduBase.H:347] Time per iteration 8983 [mu s] Time per iteration and DOF 0.071864 [ns]
nonecudaGKOCG:  Solving for p, Initial residual = 0.363418, Final residual = 3.42158e-05, No Iterations 3926
linear solve p 52354496
time step continuity errors : sum local = 5.55108e-11, global = 8.23701e-24, cumulative = 2.05367e-22
ExecutionTime = 4419.58 s  ClockTime = 4442 s

Time = 0.0001

Courant Number mean: 0.00230673 max: 0.092787
DILUPBiCGStab:  Solving for Ux, Initial residual = 0.0318138, Final residual = 9.03272e-05, No Iterations 5
DILUPBiCGStab:  Solving for Uy, Initial residual = 0.0636213, Final residual = 8.49863e-05, No Iterations 5
DILUPBiCGStab:  Solving for Uz, Initial residual = 0.0896955, Final residual = 0.000331875, No Iterations 5
linear solve U 44298941
[OGL LOG][Proc: 0]global_index_init : 7 mu s
[OGL LOG][Proc: 0]global_index_init : 1 mu s
[OGL LOG][Proc: 0]update_host_matrix_data : 842299 mu s
[OGL LOG][Proc: 0]gather_global_matrix : 0 mu s
[OGL LOG][Proc: 0]init_precond : 39 mu s
[OGL LOG][Proc: 0]generate_solver : 1 mu s
[OGL LOG][Proc: 0]solve : 33760399 mu s
[OGL LOG][Proc: 0]copy_x_back : 122198 mu s
[OGL LOG][lduLduBase.H:347] Time per iteration 8957 [mu s] Time per iteration and DOF 0.071656 [ns]
nonecudaGKOCG:  Solving for p, Initial residual = 0.328671, Final residual = 9.87251e-05, No Iterations 3769
linear solve p 50801724
time step continuity errors : sum local = 1.31965e-10, global = 3.71146e-23, cumulative = 2.42482e-22
[OGL LOG][Proc: 0]global_index_init : 8 mu s
[OGL LOG][Proc: 0]global_index_init : 1 mu s
[OGL LOG][Proc: 0]update_host_matrix_data : 841862 mu s
[OGL LOG][Proc: 0]gather_global_matrix : 0 mu s
[OGL LOG][Proc: 0]init_precond : 50 mu s
[OGL LOG][Proc: 0]generate_solver : 1 mu s
[OGL LOG][Proc: 0]solve : 34882156 mu s
[OGL LOG][Proc: 0]copy_x_back : 122969 mu s
[OGL LOG][lduLduBase.H:347] Time per iteration 8941 [mu s] Time per iteration and DOF 0.071528 [ns]
nonecudaGKOCG:  Solving for p, Initial residual = 0.282174, Final residual = 3.81462e-05, No Iterations 3901
linear solve p 51968727
time step continuity errors : sum local = 5.0686e-11, global = 2.62427e-24, cumulative = 2.45106e-22
ExecutionTime = 4593.67 s  ClockTime = 4621 s

Time = 0.00012

Courant Number mean: 0.00257532 max: 0.0936647
DILUPBiCGStab:  Solving for Ux, Initial residual = 0.0259269, Final residual = 6.65458e-05, No Iterations 5
DILUPBiCGStab:  Solving for Uy, Initial residual = 0.050046, Final residual = 4.60581e-05, No Iterations 5
DILUPBiCGStab:  Solving for Uz, Initial residual = 0.0789103, Final residual = 0.000308421, No Iterations 5
linear solve U 44490472
[OGL LOG][Proc: 0]global_index_init : 7 mu s
[OGL LOG][Proc: 0]global_index_init : 0 mu s
[OGL LOG][Proc: 0]update_host_matrix_data : 841810 mu s
[OGL LOG][Proc: 0]gather_global_matrix : 0 mu s
[OGL LOG][Proc: 0]init_precond : 39 mu s
[OGL LOG][Proc: 0]generate_solver : 1 mu s
[OGL LOG][Proc: 0]solve : 34739807 mu s
[OGL LOG][Proc: 0]copy_x_back : 122249 mu s
[OGL LOG][lduLduBase.H:347] Time per iteration 8905 [mu s] Time per iteration and DOF 0.071240 [ns]
nonecudaGKOCG:  Solving for p, Initial residual = 0.208202, Final residual = 3.55083e-05, No Iterations 3901
linear solve p 51803606
time step continuity errors : sum local = 4.52657e-11, global = -3.44571e-23, cumulative = 2.10649e-22
[OGL LOG][Proc: 0]global_index_init : 7 mu s
[OGL LOG][Proc: 0]global_index_init : 1 mu s
[OGL LOG][Proc: 0]update_host_matrix_data : 842012 mu s
[OGL LOG][Proc: 0]gather_global_matrix : 0 mu s
[OGL LOG][Proc: 0]init_precond : 44 mu s
[OGL LOG][Proc: 0]generate_solver : 1 mu s
[OGL LOG][Proc: 0]solve : 35489544 mu s
[OGL LOG][Proc: 0]copy_x_back : 121550 mu s
[OGL LOG][lduLduBase.H:347] Time per iteration 9097 [mu s] Time per iteration and DOF 0.072776 [ns]
nonecudaGKOCG:  Solving for p, Initial residual = 0.174018, Final residual = 3.31041e-05, No Iterations 3901
linear solve p 52503628
time step continuity errors : sum local = 4.21842e-11, global = -1.69434e-23, cumulative = 1.93706e-22
ExecutionTime = 4769.51 s  ClockTime = 4801 s

Time = 0.00014

Courant Number mean: 0.00281282 max: 0.0942765
DILUPBiCGStab:  Solving for Ux, Initial residual = 0.0220102, Final residual = 4.61755e-05, No Iterations 5
DILUPBiCGStab:  Solving for Uy, Initial residual = 0.0411066, Final residual = 3.51435e-05, No Iterations 5
DILUPBiCGStab:  Solving for Uz, Initial residual = 0.0657648, Final residual = 0.000179225, No Iterations 5
linear solve U 44386524
[OGL LOG][Proc: 0]global_index_init : 8 mu s
[OGL LOG][Proc: 0]global_index_init : 1 mu s
[OGL LOG][Proc: 0]update_host_matrix_data : 847325 mu s
[OGL LOG][Proc: 0]gather_global_matrix : 0 mu s
[OGL LOG][Proc: 0]init_precond : 39 mu s
[OGL LOG][Proc: 0]generate_solver : 2 mu s
[OGL LOG][Proc: 0]solve : 33527572 mu s
[OGL LOG][Proc: 0]copy_x_back : 122221 mu s
[OGL LOG][lduLduBase.H:347] Time per iteration 8952 [mu s] Time per iteration and DOF 0.071616 [ns]
nonecudaGKOCG:  Solving for p, Initial residual = 0.150863, Final residual = 8.79274e-05, No Iterations 3745
linear solve p 50582292
time step continuity errors : sum local = 1.06549e-10, global = -5.01758e-23, cumulative = 1.4353e-22
[OGL LOG][Proc: 0]global_index_init : 7 mu s
[OGL LOG][Proc: 0]global_index_init : 0 mu s
[OGL LOG][Proc: 0]update_host_matrix_data : 841174 mu s
[OGL LOG][Proc: 0]gather_global_matrix : 0 mu s
[OGL LOG][Proc: 0]init_precond : 52 mu s
[OGL LOG][Proc: 0]generate_solver : 2 mu s
[OGL LOG][Proc: 0]solve : 35254544 mu s
[OGL LOG][Proc: 0]copy_x_back : 122723 mu s
[OGL LOG][lduLduBase.H:347] Time per iteration 9097 [mu s] Time per iteration and DOF 0.072776 [ns]
nonecudaGKOCG:  Solving for p, Initial residual = 0.126948, Final residual = 3.71031e-05, No Iterations 3875
linear solve p 52317292
time step continuity errors : sum local = 4.49592e-11, global = 2.96351e-23, cumulative = 1.73165e-22
ExecutionTime = 4943.81 s  ClockTime = 4979 s

Time = 0.00016

Courant Number mean: 0.00302701 max: 0.094736
DILUPBiCGStab:  Solving for Ux, Initial residual = 0.0191757, Final residual = 3.45615e-05, No Iterations 5
DILUPBiCGStab:  Solving for Uy, Initial residual = 0.034916, Final residual = 1.75238e-05, No Iterations 5
DILUPBiCGStab:  Solving for Uz, Initial residual = 0.058396, Final residual = 0.00011743, No Iterations 5
linear solve U 44419012
[OGL LOG][Proc: 0]global_index_init : 8 mu s
[OGL LOG][Proc: 0]global_index_init : 1 mu s
[OGL LOG][Proc: 0]update_host_matrix_data : 842657 mu s
[OGL LOG][Proc: 0]gather_global_matrix : 0 mu s
[OGL LOG][Proc: 0]init_precond : 40 mu s
[OGL LOG][Proc: 0]generate_solver : 2 mu s
[OGL LOG][Proc: 0]solve : 33959258 mu s
[OGL LOG][Proc: 0]copy_x_back : 122408 mu s
[OGL LOG][lduLduBase.H:347] Time per iteration 9126 [mu s] Time per iteration and DOF 0.073008 [ns]
nonecudaGKOCG:  Solving for p, Initial residual = 0.0995874, Final residual = 9.7411e-05, No Iterations 3721
linear solve p 50983454
time step continuity errors : sum local = 1.15172e-10, global = -8.10509e-23, cumulative = 9.2114e-23
[OGL LOG][Proc: 0]global_index_init : 6 mu s
[OGL LOG][Proc: 0]global_index_init : 0 mu s
[OGL LOG][Proc: 0]update_host_matrix_data : 842140 mu s
[OGL LOG][Proc: 0]gather_global_matrix : 0 mu s
[OGL LOG][Proc: 0]init_precond : 40 mu s
[OGL LOG][Proc: 0]generate_solver : 2 mu s
[OGL LOG][Proc: 0]solve : 33723660 mu s
[OGL LOG][Proc: 0]copy_x_back : 120921 mu s
[OGL LOG][lduLduBase.H:347] Time per iteration 9112 [mu s] Time per iteration and DOF 0.072896 [ns]
nonecudaGKOCG:  Solving for p, Initial residual = 0.0830077, Final residual = 9.80885e-05, No Iterations 3701
linear solve p 50737483
time step continuity errors : sum local = 1.15909e-10, global = -5.57299e-23, cumulative = 3.63841e-23
ExecutionTime = 5116.99 s  ClockTime = 5156 s

Time = 0.00018

Courant Number mean: 0.00322307 max: 0.0950968
DILUPBiCGStab:  Solving for Ux, Initial residual = 0.0170106, Final residual = 2.5745e-05, No Iterations 5
DILUPBiCGStab:  Solving for Uy, Initial residual = 0.0303406, Final residual = 1.57471e-05, No Iterations 5
DILUPBiCGStab:  Solving for Uz, Initial residual = 0.051489, Final residual = 8.40072e-05, No Iterations 5
linear solve U 44326019
[OGL LOG][Proc: 0]global_index_init : 9 mu s
[OGL LOG][Proc: 0]global_index_init : 0 mu s
[OGL LOG][Proc: 0]update_host_matrix_data : 838197 mu s
[OGL LOG][Proc: 0]gather_global_matrix : 0 mu s
[OGL LOG][Proc: 0]init_precond : 39 mu s
[OGL LOG][Proc: 0]generate_solver : 1 mu s
[OGL LOG][Proc: 0]solve : 35073903 mu s
[OGL LOG][Proc: 0]copy_x_back : 121350 mu s
[OGL LOG][lduLduBase.H:347] Time per iteration 9112 [mu s] Time per iteration and DOF 0.072896 [ns]
nonecudaGKOCG:  Solving for p, Initial residual = 0.0752383, Final residual = 4.62656e-05, No Iterations 3849
linear solve p 52198033
time step continuity errors : sum local = 5.37973e-11, global = 3.42165e-23, cumulative = 7.06006e-23
[OGL LOG][Proc: 0]global_index_init : 7 mu s
[OGL LOG][Proc: 0]global_index_init : 1 mu s
[OGL LOG][Proc: 0]update_host_matrix_data : 843089 mu s
[OGL LOG][Proc: 0]gather_global_matrix : 0 mu s
[OGL LOG][Proc: 0]init_precond : 48 mu s
[OGL LOG][Proc: 0]generate_solver : 2 mu s
[OGL LOG][Proc: 0]solve : 34879049 mu s
[OGL LOG][Proc: 0]copy_x_back : 121636 mu s
[OGL LOG][lduLduBase.H:347] Time per iteration 9116 [mu s] Time per iteration and DOF 0.072928 [ns]
nonecudaGKOCG:  Solving for p, Initial residual = 0.0630752, Final residual = 6.93282e-05, No Iterations 3826
linear solve p 51978556
time step continuity errors : sum local = 8.06323e-11, global = -2.31588e-23, cumulative = 4.74418e-23
ExecutionTime = 5292.29 s  ClockTime = 5335 s

Time = 0.0002

Courant Number mean: 0.00340444 max: 0.0953899
DILUPBiCGStab:  Solving for Ux, Initial residual = 0.0153118, Final residual = 2.02388e-05, No Iterations 5
DILUPBiCGStab:  Solving for Uy, Initial residual = 0.0268154, Final residual = 8.95943e-06, No Iterations 5
DILUPBiCGStab:  Solving for Uz, Initial residual = 0.0470365, Final residual = 6.19915e-05, No Iterations 5
linear solve U 44506444
[OGL LOG][Proc: 0]global_index_init : 7 mu s
[OGL LOG][Proc: 0]global_index_init : 0 mu s
[OGL LOG][Proc: 0]update_host_matrix_data : 844293 mu s
[OGL LOG][Proc: 0]gather_global_matrix : 0 mu s
[OGL LOG][Proc: 0]init_precond : 46 mu s
[OGL LOG][Proc: 0]generate_solver : 1 mu s
[OGL LOG][Proc: 0]solve : 34878506 mu s
[OGL LOG][Proc: 0]copy_x_back : 122805 mu s
[OGL LOG][lduLduBase.H:347] Time per iteration 9116 [mu s] Time per iteration and DOF 0.072928 [ns]
nonecudaGKOCG:  Solving for p, Initial residual = 0.0502719, Final residual = 4.47835e-05, No Iterations 3826
linear solve p 52098354
time step continuity errors : sum local = 5.142e-11, global = -5.07378e-23, cumulative = -3.29604e-24
[OGL LOG][Proc: 0]global_index_init : 8 mu s
[OGL LOG][Proc: 0]global_index_init : 0 mu s
[OGL LOG][Proc: 0]update_host_matrix_data : 841971 mu s
[OGL LOG][Proc: 0]gather_global_matrix : 0 mu s
[OGL LOG][Proc: 0]init_precond : 43 mu s
[OGL LOG][Proc: 0]generate_solver : 1 mu s
[OGL LOG][Proc: 0]solve : 34874865 mu s
[OGL LOG][Proc: 0]copy_x_back : 121461 mu s
[OGL LOG][lduLduBase.H:347] Time per iteration 9115 [mu s] Time per iteration and DOF 0.072920 [ns]
nonecudaGKOCG:  Solving for p, Initial residual = 0.0426941, Final residual = 4.30987e-05, No Iterations 3826
linear solve p 52033210
time step continuity errors : sum local = 4.94923e-11, global = 1.58809e-23, cumulative = 1.25849e-23
ExecutionTime = 5467.6 s  ClockTime = 5515 s

Time = 0.00022

Courant Number mean: 0.00357362 max: 0.0956343
DILUPBiCGStab:  Solving for Ux, Initial residual = 0.0139274, Final residual = 1.60223e-05, No Iterations 5
DILUPBiCGStab:  Solving for Uy, Initial residual = 0.0240234, Final residual = 8.1594e-06, No Iterations 5
DILUPBiCGStab:  Solving for Uz, Initial residual = 0.0427952, Final residual = 4.78983e-05, No Iterations 5
linear solve U 44462298
[OGL LOG][Proc: 0]global_index_init : 7 mu s
[OGL LOG][Proc: 0]global_index_init : 1 mu s
[OGL LOG][Proc: 0]update_host_matrix_data : 844443 mu s
[OGL LOG][Proc: 0]gather_global_matrix : 0 mu s
[OGL LOG][Proc: 0]init_precond : 40 mu s
[OGL LOG][Proc: 0]generate_solver : 2 mu s
[OGL LOG][Proc: 0]solve : 34897896 mu s
[OGL LOG][Proc: 0]copy_x_back : 122091 mu s
[OGL LOG][lduLduBase.H:347] Time per iteration 9121 [mu s] Time per iteration and DOF 0.072968 [ns]
nonecudaGKOCG:  Solving for p, Initial residual = 0.0402008, Final residual = 4.22083e-05, No Iterations 3826
linear solve p 52030420
time step continuity errors : sum local = 4.81515e-11, global = -5.72156e-23, cumulative = -4.46307e-23
[OGL LOG][Proc: 0]global_index_init : 8 mu s
[OGL LOG][Proc: 0]global_index_init : 1 mu s
[OGL LOG][Proc: 0]update_host_matrix_data : 841077 mu s
[OGL LOG][Proc: 0]gather_global_matrix : 0 mu s
[OGL LOG][Proc: 0]init_precond : 46 mu s
[OGL LOG][Proc: 0]generate_solver : 2 mu s
[OGL LOG][Proc: 0]solve : 34652674 mu s
[OGL LOG][Proc: 0]copy_x_back : 120454 mu s
[OGL LOG][lduLduBase.H:347] Time per iteration 9057 [mu s] Time per iteration and DOF 0.072456 [ns]
nonecudaGKOCG:  Solving for p, Initial residual = 0.0341931, Final residual = 4.12982e-05, No Iterations 3826
linear solve p 51800796
time step continuity errors : sum local = 4.71171e-11, global = 5.5074e-23, cumulative = 1.04433e-23
ExecutionTime = 5642.6 s  ClockTime = 5694 s

Time = 0.00024

Courant Number mean: 0.0037325 max: 0.0958419
DILUPBiCGStab:  Solving for Ux, Initial residual = 0.0127847, Final residual = 1.31271e-05, No Iterations 5
DILUPBiCGStab:  Solving for Uy, Initial residual = 0.0217498, Final residual = 5.57357e-06, No Iterations 5
DILUPBiCGStab:  Solving for Uz, Initial residual = 0.0392906, Final residual = 3.84702e-05, No Iterations 5
linear solve U 44440161
[OGL LOG][Proc: 0]global_index_init : 8 mu s
[OGL LOG][Proc: 0]global_index_init : 1 mu s
[OGL LOG][Proc: 0]update_host_matrix_data : 843563 mu s
[OGL LOG][Proc: 0]gather_global_matrix : 0 mu s
[OGL LOG][Proc: 0]init_precond : 37 mu s
[OGL LOG][Proc: 0]generate_solver : 1 mu s
[OGL LOG][Proc: 0]solve : 33261335 mu s
[OGL LOG][Proc: 0]copy_x_back : 121426 mu s
[OGL LOG][lduLduBase.H:347] Time per iteration 9055 [mu s] Time per iteration and DOF 0.072440 [ns]
nonecudaGKOCG:  Solving for p, Initial residual = 0.0288494, Final residual = 9.22596e-05, No Iterations 3673
linear solve p 50372495
time step continuity errors : sum local = 1.04738e-10, global = -2.76972e-23, cumulative = -1.72538e-23
[OGL LOG][Proc: 0]global_index_init : 9 mu s
[OGL LOG][Proc: 0]global_index_init : 1 mu s
[OGL LOG][Proc: 0]update_host_matrix_data : 843875 mu s
[OGL LOG][Proc: 0]gather_global_matrix : 0 mu s
[OGL LOG][Proc: 0]init_precond : 45 mu s
[OGL LOG][Proc: 0]generate_solver : 1 mu s
[OGL LOG][Proc: 0]solve : 33203020 mu s
[OGL LOG][Proc: 0]copy_x_back : 120972 mu s
[OGL LOG][lduLduBase.H:347] Time per iteration 9094 [mu s] Time per iteration and DOF 0.072752 [ns]
nonecudaGKOCG:  Solving for p, Initial residual = 0.0254009, Final residual = 8.92962e-05, No Iterations 3651
linear solve p 50362104
time step continuity errors : sum local = 1.01424e-10, global = 4.84333e-23, cumulative = 3.11795e-23
ExecutionTime = 5814.7 s  ClockTime = 5870 s

Time = 0.00026

Courant Number mean: 0.00388256 max: 0.0960213
DILUPBiCGStab:  Solving for Ux, Initial residual = 0.0118175, Final residual = 1.08513e-05, No Iterations 5
DILUPBiCGStab:  Solving for Uy, Initial residual = 0.019868, Final residual = 5.01724e-06, No Iterations 5
DILUPBiCGStab:  Solving for Uz, Initial residual = 0.0359595, Final residual = 3.11571e-05, No Iterations 5
linear solve U 44355837
[OGL LOG][Proc: 0]global_index_init : 7 mu s
[OGL LOG][Proc: 0]global_index_init : 1 mu s
[OGL LOG][Proc: 0]update_host_matrix_data : 842166 mu s
[OGL LOG][Proc: 0]gather_global_matrix : 0 mu s
[OGL LOG][Proc: 0]init_precond : 38 mu s
[OGL LOG][Proc: 0]generate_solver : 2 mu s
[OGL LOG][Proc: 0]solve : 33222697 mu s
[OGL LOG][Proc: 0]copy_x_back : 122003 mu s
[OGL LOG][lduLduBase.H:347] Time per iteration 9099 [mu s] Time per iteration and DOF 0.072792 [ns]
nonecudaGKOCG:  Solving for p, Initial residual = 0.0241202, Final residual = 7.6171e-05, No Iterations 3651
linear solve p 50316110
time step continuity errors : sum local = 8.62339e-11, global = -9.75538e-23, cumulative = -6.63744e-23
[OGL LOG][Proc: 0]global_index_init : 10 mu s
[OGL LOG][Proc: 0]global_index_init : 0 mu s
[OGL LOG][Proc: 0]update_host_matrix_data : 842408 mu s
[OGL LOG][Proc: 0]gather_global_matrix : 0 mu s
[OGL LOG][Proc: 0]init_precond : 44 mu s
[OGL LOG][Proc: 0]generate_solver : 1 mu s
[OGL LOG][Proc: 0]solve : 33330667 mu s
[OGL LOG][Proc: 0]copy_x_back : 121710 mu s
[OGL LOG][lduLduBase.H:347] Time per iteration 9129 [mu s] Time per iteration and DOF 0.073032 [ns]
nonecudaGKOCG:  Solving for p, Initial residual = 0.0212688, Final residual = 6.96213e-05, No Iterations 3651
linear solve p 50481532
time step continuity errors : sum local = 7.88324e-11, global = -4.15697e-23, cumulative = -1.07944e-22
ExecutionTime = 5986.91 s  ClockTime = 6046 s

Time = 0.00028

Courant Number mean: 0.00402486 max: 0.0961782
DILUPBiCGStab:  Solving for Ux, Initial residual = 0.0109922, Final residual = 9.15375e-06, No Iterations 5
DILUPBiCGStab:  Solving for Uy, Initial residual = 0.0182806, Final residual = 3.95261e-06, No Iterations 5
DILUPBiCGStab:  Solving for Uz, Initial residual = 0.0335184, Final residual = 2.63897e-05, No Iterations 5
linear solve U 44176727
[OGL LOG][Proc: 0]global_index_init : 8 mu s
[OGL LOG][Proc: 0]global_index_init : 1 mu s
[OGL LOG][Proc: 0]update_host_matrix_data : 843180 mu s
[OGL LOG][Proc: 0]gather_global_matrix : 0 mu s
[OGL LOG][Proc: 0]init_precond : 34 mu s
[OGL LOG][Proc: 0]generate_solver : 2 mu s
[OGL LOG][Proc: 0]solve : 33168702 mu s
[OGL LOG][Proc: 0]copy_x_back : 122336 mu s
[OGL LOG][lduLduBase.H:347] Time per iteration 9084 [mu s] Time per iteration and DOF 0.072672 [ns]
nonecudaGKOCG:  Solving for p, Initial residual = 0.0190922, Final residual = 7.92322e-05, No Iterations 3651
linear solve p 50261328
time step continuity errors : sum local = 8.96062e-11, global = 3.94487e-23, cumulative = -6.84953e-23
[OGL LOG][Proc: 0]global_index_init : 8 mu s
[OGL LOG][Proc: 0]global_index_init : 0 mu s
[OGL LOG][Proc: 0]update_host_matrix_data : 839643 mu s
[OGL LOG][Proc: 0]gather_global_matrix : 0 mu s
[OGL LOG][Proc: 0]init_precond : 48 mu s
[OGL LOG][Proc: 0]generate_solver : 1 mu s
[OGL LOG][Proc: 0]solve : 33134556 mu s
[OGL LOG][Proc: 0]copy_x_back : 122073 mu s
[OGL LOG][lduLduBase.H:347] Time per iteration 9075 [mu s] Time per iteration and DOF 0.072600 [ns]
nonecudaGKOCG:  Solving for p, Initial residual = 0.0173522, Final residual = 7.4302e-05, No Iterations 3651
linear solve p 50247636
time step continuity errors : sum local = 8.40644e-11, global = 3.54477e-23, cumulative = -3.30476e-23
ExecutionTime = 6158.69 s  ClockTime = 6222 s

Time = 0.0003

Courant Number mean: 0.00416031 max: 0.0963169
DILUPBiCGStab:  Solving for Ux, Initial residual = 0.0102758, Final residual = 7.80486e-06, No Iterations 5
DILUPBiCGStab:  Solving for Uy, Initial residual = 0.0169265, Final residual = 3.56034e-06, No Iterations 5
DILUPBiCGStab:  Solving for Uz, Initial residual = 0.0312115, Final residual = 2.20889e-05, No Iterations 5
linear solve U 44248583
[OGL LOG][Proc: 0]global_index_init : 8 mu s
[OGL LOG][Proc: 0]global_index_init : 1 mu s
[OGL LOG][Proc: 0]update_host_matrix_data : 841695 mu s
[OGL LOG][Proc: 0]gather_global_matrix : 0 mu s
[OGL LOG][Proc: 0]init_precond : 39 mu s
[OGL LOG][Proc: 0]generate_solver : 2 mu s
[OGL LOG][Proc: 0]solve : 33159200 mu s
[OGL LOG][Proc: 0]copy_x_back : 122345 mu s
[OGL LOG][lduLduBase.H:347] Time per iteration 9082 [mu s] Time per iteration and DOF 0.072656 [ns]
nonecudaGKOCG:  Solving for p, Initial residual = 0.0165775, Final residual = 7.05216e-05, No Iterations 3651
linear solve p 50227934
time step continuity errors : sum local = 7.9614e-11, global = -5.26183e-23, cumulative = -8.56659e-23
[OGL LOG][Proc: 0]global_index_init : 8 mu s
[OGL LOG][Proc: 0]global_index_init : 1 mu s
[OGL LOG][Proc: 0]update_host_matrix_data : 842027 mu s
[OGL LOG][Proc: 0]gather_global_matrix : 0 mu s
[OGL LOG][Proc: 0]init_precond : 48 mu s
[OGL LOG][Proc: 0]generate_solver : 1 mu s
[OGL LOG][Proc: 0]solve : 32860827 mu s
[OGL LOG][Proc: 0]copy_x_back : 122187 mu s
[OGL LOG][lduLduBase.H:347] Time per iteration 9000 [mu s] Time per iteration and DOF 0.072000 [ns]
nonecudaGKOCG:  Solving for p, Initial residual = 0.0151351, Final residual = 6.51286e-05, No Iterations 3651
linear solve p 49926285
time step continuity errors : sum local = 7.35427e-11, global = 9.25259e-24, cumulative = -7.64134e-23
ExecutionTime = 6330.16 s  ClockTime = 6397 s

Time = 0.00032

Courant Number mean: 0.00428975 max: 0.0964407
DILUPBiCGStab:  Solving for Ux, Initial residual = 0.00964993, Final residual = 6.74041e-06, No Iterations 5
DILUPBiCGStab:  Solving for Uy, Initial residual = 0.0157555, Final residual = 3.04706e-06, No Iterations 5
DILUPBiCGStab:  Solving for Uz, Initial residual = 0.0293315, Final residual = 1.90362e-05, No Iterations 5
linear solve U 44179936
[OGL LOG][Proc: 0]global_index_init : 8 mu s
[OGL LOG][Proc: 0]global_index_init : 1 mu s
[OGL LOG][Proc: 0]update_host_matrix_data : 842683 mu s
[OGL LOG][Proc: 0]gather_global_matrix : 0 mu s
[OGL LOG][Proc: 0]init_precond : 46 mu s
[OGL LOG][Proc: 0]generate_solver : 2 mu s
[OGL LOG][Proc: 0]solve : 33088900 mu s
[OGL LOG][Proc: 0]copy_x_back : 120649 mu s
[OGL LOG][lduLduBase.H:347] Time per iteration 9062 [mu s] Time per iteration and DOF 0.072496 [ns]
nonecudaGKOCG:  Solving for p, Initial residual = 0.0141039, Final residual = 5.64816e-05, No Iterations 3651
linear solve p 50155428
time step continuity errors : sum local = 6.37813e-11, global = -1.51708e-23, cumulative = -9.15841e-23
[OGL LOG][Proc: 0]global_index_init : 9 mu s
[OGL LOG][Proc: 0]global_index_init : 1 mu s
[OGL LOG][Proc: 0]update_host_matrix_data : 842479 mu s
[OGL LOG][Proc: 0]gather_global_matrix : 0 mu s
[OGL LOG][Proc: 0]init_precond : 43 mu s
[OGL LOG][Proc: 0]generate_solver : 1 mu s
[OGL LOG][Proc: 0]solve : 33113979 mu s
[OGL LOG][Proc: 0]copy_x_back : 120063 mu s
[OGL LOG][lduLduBase.H:347] Time per iteration 9069 [mu s] Time per iteration and DOF 0.072552 [ns]
nonecudaGKOCG:  Solving for p, Initial residual = 0.0131291, Final residual = 4.26823e-05, No Iterations 3651
linear solve p 50179395
time step continuity errors : sum local = 4.82136e-11, global = 1.87988e-23, cumulative = -7.27853e-23
ExecutionTime = 6501.7 s  ClockTime = 6572 s

Time = 0.00034

Courant Number mean: 0.00441375 max: 0.0965522
DILUPBiCGStab:  Solving for Ux, Initial residual = 0.00909652, Final residual = 5.88323e-06, No Iterations 5
DILUPBiCGStab:  Solving for Uy, Initial residual = 0.0147345, Final residual = 2.76665e-06, No Iterations 5
DILUPBiCGStab:  Solving for Uz, Initial residual = 0.0276538, Final residual = 1.63152e-05, No Iterations 5
linear solve U 44253754
[OGL LOG][Proc: 0]global_index_init : 12 mu s
[OGL LOG][Proc: 0]global_index_init : 2 mu s
[OGL LOG][Proc: 0]update_host_matrix_data : 845141 mu s
[OGL LOG][Proc: 0]gather_global_matrix : 0 mu s
[OGL LOG][Proc: 0]init_precond : 37 mu s
[OGL LOG][Proc: 0]generate_solver : 1 mu s
[OGL LOG][Proc: 0]solve : 33198257 mu s
[OGL LOG][Proc: 0]copy_x_back : 119422 mu s
[OGL LOG][lduLduBase.H:347] Time per iteration 9092 [mu s] Time per iteration and DOF 0.072736 [ns]
nonecudaGKOCG:  Solving for p, Initial residual = 0.0124719, Final residual = 6.61196e-05, No Iterations 3651
linear solve p 50254408
time step continuity errors : sum local = 7.45917e-11, global = -3.4702e-25, cumulative = -7.31323e-23
[OGL LOG][Proc: 0]global_index_init : 9 mu s
[OGL LOG][Proc: 0]global_index_init : 0 mu s
[OGL LOG][Proc: 0]update_host_matrix_data : 840563 mu s
[OGL LOG][Proc: 0]gather_global_matrix : 0 mu s
[OGL LOG][Proc: 0]init_precond : 47 mu s
[OGL LOG][Proc: 0]generate_solver : 1 mu s
[OGL LOG][Proc: 0]solve : 33369609 mu s
[OGL LOG][Proc: 0]copy_x_back : 120551 mu s
[OGL LOG][lduLduBase.H:347] Time per iteration 9139 [mu s] Time per iteration and DOF 0.073112 [ns]
nonecudaGKOCG:  Solving for p, Initial residual = 0.011702, Final residual = 5.73902e-05, No Iterations 3651
linear solve p 50397308
time step continuity errors : sum local = 6.47602e-11, global = -5.06456e-23, cumulative = -1.23778e-22
ExecutionTime = 6673.22 s  ClockTime = 6748 s

Time = 0.00036

Courant Number mean: 0.0045328 max: 0.0966531
DILUPBiCGStab:  Solving for Ux, Initial residual = 0.00860456, Final residual = 5.19122e-06, No Iterations 5
DILUPBiCGStab:  Solving for Uy, Initial residual = 0.0138352, Final residual = 2.47398e-06, No Iterations 5
DILUPBiCGStab:  Solving for Uz, Initial residual = 0.0260403, Final residual = 1.42993e-05, No Iterations 5
linear solve U 44291414
[OGL LOG][Proc: 0]global_index_init : 8 mu s
[OGL LOG][Proc: 0]global_index_init : 1 mu s
[OGL LOG][Proc: 0]update_host_matrix_data : 841488 mu s
[OGL LOG][Proc: 0]gather_global_matrix : 0 mu s
[OGL LOG][Proc: 0]init_precond : 37 mu s
[OGL LOG][Proc: 0]generate_solver : 1 mu s
[OGL LOG][Proc: 0]solve : 33235095 mu s
[OGL LOG][Proc: 0]copy_x_back : 120595 mu s
[OGL LOG][lduLduBase.H:347] Time per iteration 9103 [mu s] Time per iteration and DOF 0.072824 [ns]
nonecudaGKOCG:  Solving for p, Initial residual = 0.0113072, Final residual = 5.81356e-05, No Iterations 3651
linear solve p 50307453
time step continuity errors : sum local = 6.56225e-11, global = -1.16736e-22, cumulative = -2.40514e-22
[OGL LOG][Proc: 0]global_index_init : 8 mu s
[OGL LOG][Proc: 0]global_index_init : 1 mu s
[OGL LOG][Proc: 0]update_host_matrix_data : 841920 mu s
[OGL LOG][Proc: 0]gather_global_matrix : 0 mu s
[OGL LOG][Proc: 0]init_precond : 44 mu s
[OGL LOG][Proc: 0]generate_solver : 2 mu s
[OGL LOG][Proc: 0]solve : 32973584 mu s
[OGL LOG][Proc: 0]copy_x_back : 120536 mu s
[OGL LOG][lduLduBase.H:347] Time per iteration 9031 [mu s] Time per iteration and DOF 0.072248 [ns]
nonecudaGKOCG:  Solving for p, Initial residual = 0.0107082, Final residual = 5.06787e-05, No Iterations 3651
linear solve p 50003724
time step continuity errors : sum local = 5.72202e-11, global = -6.22206e-23, cumulative = -3.02734e-22
ExecutionTime = 6844.69 s  ClockTime = 6923 s

Time = 0.00038

Courant Number mean: 0.00464746 max: 0.0967452
DILUPBiCGStab:  Solving for Ux, Initial residual = 0.00816336, Final residual = 4.62333e-06, No Iterations 5
DILUPBiCGStab:  Solving for Uy, Initial residual = 0.0130379, Final residual = 2.26922e-06, No Iterations 5
DILUPBiCGStab:  Solving for Uz, Initial residual = 0.0246806, Final residual = 1.25097e-05, No Iterations 5
linear solve U 44195071
[OGL LOG][Proc: 0]global_index_init : 8 mu s
[OGL LOG][Proc: 0]global_index_init : 0 mu s
[OGL LOG][Proc: 0]update_host_matrix_data : 842846 mu s
[OGL LOG][Proc: 0]gather_global_matrix : 0 mu s
[OGL LOG][Proc: 0]init_precond : 36 mu s
[OGL LOG][Proc: 0]generate_solver : 2 mu s
[OGL LOG][Proc: 0]solve : 26681854 mu s
[OGL LOG][Proc: 0]copy_x_back : 120501 mu s
[OGL LOG][lduLduBase.H:347] Time per iteration 9134 [mu s] Time per iteration and DOF 0.073072 [ns]
nonecudaGKOCG:  Solving for p, Initial residual = 0.0102904, Final residual = 9.00512e-05, No Iterations 2921
linear solve p 43887932
time step continuity errors : sum local = 1.02086e-10, global = 3.83957e-23, cumulative = -2.64339e-22
[OGL LOG][Proc: 0]global_index_init : 7 mu s
[OGL LOG][Proc: 0]global_index_init : 0 mu s
[OGL LOG][Proc: 0]update_host_matrix_data : 840335 mu s
[OGL LOG][Proc: 0]gather_global_matrix : 0 mu s
[OGL LOG][Proc: 0]init_precond : 44 mu s
[OGL LOG][Proc: 0]generate_solver : 2 mu s
[OGL LOG][Proc: 0]solve : 22819307 mu s
[OGL LOG][Proc: 0]copy_x_back : 120942 mu s
[OGL LOG][lduLduBase.H:347] Time per iteration 9363 [mu s] Time per iteration and DOF 0.074904 [ns]
nonecudaGKOCG:  Solving for p, Initial residual = 0.00979022, Final residual = 1.71695e-06, No Iterations 2437
linear solve p 39811560
time step continuity errors : sum local = 2.06573e-12, global = -1.06853e-22, cumulative = -3.71192e-22
ExecutionTime = 7000.3 s  ClockTime = 7082 s

Time = 0.0004

Courant Number mean: 0.00475798 max: 0.0968295
DILUPBiCGStab:  Solving for Ux, Initial residual = 0.00776566, Final residual = 4.15574e-06, No Iterations 5
DILUPBiCGStab:  Solving for Uy, Initial residual = 0.0123262, Final residual = 2.07401e-06, No Iterations 5
DILUPBiCGStab:  Solving for Uz, Initial residual = 0.0236725, Final residual = 1.12628e-05, No Iterations 5
linear solve U 44122083
[OGL LOG][Proc: 0]global_index_init : 7 mu s
[OGL LOG][Proc: 0]global_index_init : 0 mu s
[OGL LOG][Proc: 0]update_host_matrix_data : 842509 mu s
[OGL LOG][Proc: 0]gather_global_matrix : 0 mu s
[OGL LOG][Proc: 0]init_precond : 36 mu s
[OGL LOG][Proc: 0]generate_solver : 2 mu s
[OGL LOG][Proc: 0]solve : 18836497 mu s
[OGL LOG][Proc: 0]copy_x_back : 120358 mu s
[OGL LOG][lduLduBase.H:347] Time per iteration 9242 [mu s] Time per iteration and DOF 0.073936 [ns]
nonecudaGKOCG:  Solving for p, Initial residual = 0.00943754, Final residual = 3.936e-06, No Iterations 2038
linear solve p 35911436
time step continuity errors : sum local = 4.45206e-12, global = -1.31914e-22, cumulative = -5.03106e-22
[OGL LOG][Proc: 0]global_index_init : 8 mu s
[OGL LOG][Proc: 0]global_index_init : 1 mu s
[OGL LOG][Proc: 0]update_host_matrix_data : 842266 mu s
[OGL LOG][Proc: 0]gather_global_matrix : 0 mu s
[OGL LOG][Proc: 0]init_precond : 44 mu s
[...]
Endtime: Sun May 29 21:41:40 2022
Memory Utilized: 9.81 GB
Memory Efficiency: 4.13% of 237.50 GB
Energy Consumed: 7057 Joule / 1.96027777777778 Watthours
Average node power draw: 235.233333333333 Watt
hash: 577d8915fd32c17fbe279bfde2286c65
/*---------------------------------------------------------------------------*\
| =========                 |                                                 |
| \\      /  F ield         | OpenFOAM: The Open Source CFD Toolbox           |
|  \\    /   O peration     | Version:  2112                                  |
|   \\  /    A nd           | Website:  www.openfoam.com                      |
|    \\/     M anipulation  |                                                 |
\*---------------------------------------------------------------------------*/
Build  : d44c8318f0-20220111 OPENFOAM=2112 version=v2112
Arch   : "LSB;label=32;scalar=64"
Exec   : icoFoam -parallel
Date   : May 29 2022
Time   : 21:41:33
Host   : hkn1660.localdomain
PID    : 3535838
I/O    : uncollated
Case   : /hkfs/work/workspace/scratch/eq4036-lidDrivenCavity/simple/Variation_mesh/100/Variation_matrix_solver/CG_NoPrecond_DefaultOF/Variation_mpiRank_of/64/base
nProcs : 64
Hosts  :
(
    (hkn1660.localdomain 64)
)
Pstream initialized with:
    floatTransfer      : 0
    nProcsSimpleSum    : 0
    commsType          : nonBlocking
    polling iterations : 0
trapFpe: Floating point exception trapping enabled (FOAM_SIGFPE).
fileModificationChecking : Monitoring run-time modified files using timeStampMaster (fileModificationSkew 5, maxFileModificationPolls 20)
allowSystemOperations : Allowing user-supplied system call operations

// * * * * * * * * * * * * * * * * * * * * * * * * * * * * * * * * * * * * * //
Create time

Create mesh for time = 0


PISO: Operating solver in PISO mode

Reading transportProperties

Reading field p

Reading field U

Reading/calculating face flux field phi


Starting time loop

Time = 0.0001

Courant Number mean: 0 max: 0
DILUPBiCGStab:  Solving for Ux, Initial residual = 1, Final residual = 7.25734e-06, No Iterations 5
DILUPBiCGStab:  Solving for Uy:  solution singularity
DILUPBiCGStab:  Solving for Uz:  solution singularity
linear solve U 13278
nonePCG:  Solving for p, Initial residual = 1, Final residual = 9.6858e-05, No Iterations 794
linear solve p 165113
time step continuity errors : sum local = 1.71129e-09, global = -4.37053e-22, cumulative = -4.37053e-22
nonePCG:  Solving for p, Initial residual = 0.559984, Final residual = 9.74071e-05, No Iterations 777
linear solve p 163938
time step continuity errors : sum local = 2.66451e-09, global = 1.41517e-22, cumulative = -2.95536e-22
ExecutionTime = 0.62 s  ClockTime = 1 s

Time = 0.0002

Courant Number mean: 0.00201332 max: 0.0540371
DILUPBiCGStab:  Solving for Ux, Initial residual = 0.216464, Final residual = 5.41579e-06, No Iterations 5
DILUPBiCGStab:  Solving for Uy, Initial residual = 0.309938, Final residual = 5.4206e-06, No Iterations 5
DILUPBiCGStab:  Solving for Uz, Initial residual = 0.981311, Final residual = 1.34631e-05, No Iterations 5
linear solve U 21222
nonePCG:  Solving for p, Initial residual = 0.381712, Final residual = 9.11123e-05, No Iterations 769
linear solve p 158673
time step continuity errors : sum local = 2.38298e-09, global = -8.52034e-22, cumulative = -1.14757e-21
nonePCG:  Solving for p, Initial residual = 0.284821, Final residual = 9.59913e-05, No Iterations 764
linear solve p 156469
time step continuity errors : sum local = 2.63047e-09, global = -6.8876e-22, cumulative = -1.83633e-21
ExecutionTime = 0.98 s  ClockTime = 2 s

Time = 0.0003

Courant Number mean: 0.00317979 max: 0.0721774
DILUPBiCGStab:  Solving for Ux, Initial residual = 0.0963257, Final residual = 2.29339e-06, No Iterations 5
DILUPBiCGStab:  Solving for Uy, Initial residual = 0.140691, Final residual = 2.15162e-06, No Iterations 5
DILUPBiCGStab:  Solving for Uz, Initial residual = 0.205656, Final residual = 3.13179e-06, No Iterations 5
linear solve U 19506
nonePCG:  Solving for p, Initial residual = 0.128593, Final residual = 9.76147e-05, No Iterations 743
linear solve p 152124
time step continuity errors : sum local = 2.30016e-09, global = -7.95874e-22, cumulative = -2.6322e-21
nonePCG:  Solving for p, Initial residual = 0.0996287, Final residual = 9.84174e-05, No Iterations 736
linear solve p 152227
time step continuity errors : sum local = 2.34922e-09, global = -4.07266e-22, cumulative = -3.03947e-21
ExecutionTime = 1.32 s  ClockTime = 2 s

Time = 0.0004

Courant Number mean: 0.00397984 max: 0.0793325
DILUPBiCGStab:  Solving for Ux, Initial residual = 0.0593651, Final residual = 1.18547e-06, No Iterations 5
DILUPBiCGStab:  Solving for Uy, Initial residual = 0.0868087, Final residual = 1.06053e-06, No Iterations 5
DILUPBiCGStab:  Solving for Uz, Initial residual = 0.127075, Final residual = 1.43899e-06, No Iterations 5
linear solve U 19288
nonePCG:  Solving for p, Initial residual = 0.0643025, Final residual = 9.67351e-05, No Iterations 729
linear solve p 152436
time step continuity errors : sum local = 2.24278e-09, global = -6.67196e-22, cumulative = -3.70667e-21
nonePCG:  Solving for p, Initial residual = 0.0497366, Final residual = 9.68039e-05, No Iterations 720
linear solve p 151036
time step continuity errors : sum local = 2.27923e-09, global = -1.56066e-22, cumulative = -3.86273e-21
ExecutionTime = 1.67 s  ClockTime = 2 s

Time = 0.0005

Courant Number mean: 0.00460129 max: 0.082885
DILUPBiCGStab:  Solving for Ux, Initial residual = 0.04286, Final residual = 8.08443e-07, No Iterations 5
DILUPBiCGStab:  Solving for Uy, Initial residual = 0.061865, Final residual = 6.09578e-07, No Iterations 5
DILUPBiCGStab:  Solving for Uz, Initial residual = 0.097144, Final residual = 1.10553e-06, No Iterations 5
linear solve U 19320
nonePCG:  Solving for p, Initial residual = 0.0389509, Final residual = 9.90709e-05, No Iterations 402
linear solve p 83992
time step continuity errors : sum local = 2.66736e-09, global = -4.65041e-22, cumulative = -4.32777e-21
nonePCG:  Solving for p, Initial residual = 0.0305821, Final residual = 9.84953e-05, No Iterations 339
linear solve p 71741
time step continuity errors : sum local = 2.46234e-09, global = -1.13452e-21, cumulative = -5.46229e-21
ExecutionTime = 1.86 s  ClockTime = 3 s

Time = 0.0006

Courant Number mean: 0.00511864 max: 0.0850107
DILUPBiCGStab:  Solving for Ux, Initial residual = 0.0336702, Final residual = 5.96512e-07, No Iterations 5
DILUPBiCGStab:  Solving for Uy, Initial residual = 0.0480492, Final residual = 4.07838e-07, No Iterations 5
DILUPBiCGStab:  Solving for Uz, Initial residual = 0.0802555, Final residual = 9.89357e-07, No Iterations 5
linear solve U 24536
nonePCG:  Solving for p, Initial residual = 0.0269333, Final residual = 9.73877e-05, No Iterations 341
linear solve p 77844
time step continuity errors : sum local = 2.54428e-09, global = -2.06133e-22, cumulative = -5.66843e-21
nonePCG:  Solving for p, Initial residual = 0.0213734, Final residual = 9.98465e-05, No Iterations 311
linear solve p 67784
time step continuity errors : sum local = 2.52751e-09, global = -5.27762e-22, cumulative = -6.19619e-21
ExecutionTime = 2.05 s  ClockTime = 3 s

Time = 0.0007

Courant Number mean: 0.00556497 max: 0.0864549
DILUPBiCGStab:  Solving for Ux, Initial residual = 0.0277666, Final residual = 4.52676e-07, No Iterations 5
DILUPBiCGStab:  Solving for Uy, Initial residual = 0.0392374, Final residual = 3.06655e-07, No Iterations 5
DILUPBiCGStab:  Solving for Uz, Initial residual = 0.06774, Final residual = 8.29484e-07, No Iterations 5
linear solve U 24626
nonePCG:  Solving for p, Initial residual = 0.0207735, Final residual = 9.71522e-05, No Iterations 301
linear solve p 64773
time step continuity errors : sum local = 2.5948e-09, global = -2.87549e-22, cumulative = -6.48374e-21
nonePCG:  Solving for p, Initial residual = 0.0165081, Final residual = 9.98875e-05, No Iterations 292
linear solve p 61950
time step continuity errors : sum local = 2.57922e-09, global = -6.93591e-23, cumulative = -6.55309e-21
ExecutionTime = 2.24 s  ClockTime = 3 s

Time = 0.0008

Courant Number mean: 0.0059623 max: 0.0875193
DILUPBiCGStab:  Solving for Ux, Initial residual = 0.0236243, Final residual = 3.59182e-07, No Iterations 5
DILUPBiCGStab:  Solving for Uy, Initial residual = 0.0331355, Final residual = 2.47268e-07, No Iterations 5
DILUPBiCGStab:  Solving for Uz, Initial residual = 0.0588691, Final residual = 6.78626e-07, No Iterations 5
linear solve U 21062
nonePCG:  Solving for p, Initial residual = 0.0166958, Final residual = 9.79926e-05, No Iterations 294
linear solve p 61437
time step continuity errors : sum local = 2.62583e-09, global = -1.1085e-21, cumulative = -7.6616e-21
nonePCG:  Solving for p, Initial residual = 0.0133998, Final residual = 9.41797e-05, No Iterations 288
linear solve p 59756
time step continuity errors : sum local = 2.47596e-09, global = -1.91558e-21, cumulative = -9.57718e-21
ExecutionTime = 2.4 s  ClockTime = 3 s

Time = 0.0009

Courant Number mean: 0.00631847 max: 0.0883466
DILUPBiCGStab:  Solving for Ux, Initial residual = 0.0205606, Final residual = 2.92414e-07, No Iterations 5
DILUPBiCGStab:  Solving for Uy, Initial residual = 0.0286497, Final residual = 2.07696e-07, No Iterations 5
DILUPBiCGStab:  Solving for Uz, Initial residual = 0.0520025, Final residual = 5.59982e-07, No Iterations 5
linear solve U 19102
nonePCG:  Solving for p, Initial residual = 0.0138951, Final residual = 9.62666e-05, No Iterations 289
linear solve p 60184
time step continuity errors : sum local = 2.60581e-09, global = -2.72552e-21, cumulative = -1.23027e-20
nonePCG:  Solving for p, Initial residual = 0.0112071, Final residual = 9.90266e-05, No Iterations 283
linear solve p 59049
time step continuity errors : sum local = 2.62321e-09, global = -2.36286e-21, cumulative = -1.46656e-20
ExecutionTime = 2.56 s  ClockTime = 3 s

Time = 0.001

Courant Number mean: 0.00664438 max: 0.089014
DILUPBiCGStab:  Solving for Ux, Initial residual = 0.0181846, Final residual = 2.4298e-07, No Iterations 5
DILUPBiCGStab:  Solving for Uy, Initial residual = 0.0252122, Final residual = 1.79119e-07, No Iterations 5
DILUPBiCGStab:  Solving for Uz, Initial residual = 0.0465165, Final residual = 4.68032e-07, No Iterations 5
linear solve U 19407
nonePCG:  Solving for p, Initial residual = 0.0118734, Final residual = 9.83599e-05, No Iterations 285
linear solve p 61154
time step continuity errors : sum local = 2.67248e-09, global = -7.21177e-22, cumulative = -1.53867e-20
nonePCG:  Solving for p, Initial residual = 0.00961715, Final residual = 9.93097e-05, No Iterations 280
linear solve p 59515
time step continuity errors : sum local = 2.65497e-09, global = -2.59085e-21, cumulative = -1.79776e-20
ExecutionTime = 2.72 s  ClockTime = 3 s

Time = 0.0011

Courant Number mean: 0.00694533 max: 0.0895673
DILUPBiCGStab:  Solving for Ux, Initial residual = 0.016298, Final residual = 2.05641e-07, No Iterations 5
DILUPBiCGStab:  Solving for Uy, Initial residual = 0.0224932, Final residual = 1.57486e-07, No Iterations 5
DILUPBiCGStab:  Solving for Uz, Initial residual = 0.0420355, Final residual = 3.95095e-07, No Iterations 5
linear solve U 19966
nonePCG:  Solving for p, Initial residual = 0.0102938, Final residual = 9.77979e-05, No Iterations 283
linear solve p 64156
time step continuity errors : sum local = 2.67452e-09, global = -2.70629e-21, cumulative = -2.06839e-20
nonePCG:  Solving for p, Initial residual = 0.00836284, Final residual = 9.38383e-05, No Iterations 278
linear solve p 57541
time step continuity errors : sum local = 2.5429e-09, global = -9.96153e-22, cumulative = -2.168e-20
ExecutionTime = 2.89 s  ClockTime = 4 s

Time = 0.0012

Courant Number mean: 0.00722379 max: 0.0900356
DILUPBiCGStab:  Solving for Ux, Initial residual = 0.0147479, Final residual = 1.76867e-07, No Iterations 5
DILUPBiCGStab:  Solving for Uy, Initial residual = 0.0202888, Final residual = 1.40544e-07, No Iterations 5
DILUPBiCGStab:  Solving for Uz, Initial residual = 0.0383096, Final residual = 3.36616e-07, No Iterations 5
linear solve U 19158
nonePCG:  Solving for p, Initial residual = 0.00904597, Final residual = 9.77292e-05, No Iterations 279
linear solve p 58156
time step continuity errors : sum local = 2.68614e-09, global = -1.50179e-21, cumulative = -2.31818e-20
nonePCG:  Solving for p, Initial residual = 0.00738614, Final residual = 9.79961e-05, No Iterations 275
linear solve p 61146
time step continuity errors : sum local = 2.66238e-09, global = -4.63924e-22, cumulative = -2.36457e-20
ExecutionTime = 3.05 s  ClockTime = 4 s

Time = 0.0013

Courant Number mean: 0.00748302 max: 0.0904386
DILUPBiCGStab:  Solving for Ux, Initial residual = 0.0134667, Final residual = 1.54336e-07, No Iterations 5
DILUPBiCGStab:  Solving for Uy, Initial residual = 0.0184656, Final residual = 1.26941e-07, No Iterations 5
DILUPBiCGStab:  Solving for Uz, Initial residual = 0.0351678, Final residual = 2.90072e-07, No Iterations 5
linear solve U 19270
nonePCG:  Solving for p, Initial residual = 0.00809509, Final residual = 9.78164e-05, No Iterations 276
linear solve p 57346
time step continuity errors : sum local = 2.70075e-09, global = -1.7887e-21, cumulative = -2.54344e-20
nonePCG:  Solving for p, Initial residual = 0.00662979, Final residual = 9.5487e-05, No Iterations 272
linear solve p 56843
time step continuity errors : sum local = 2.6168e-09, global = -1.21048e-21, cumulative = -2.66449e-20
ExecutionTime = 3.21 s  ClockTime = 4 s

Time = 0.0014

Courant Number mean: 0.00772783 max: 0.0907903
DILUPBiCGStab:  Solving for Ux, Initial residual = 0.0123791, Final residual = 1.36448e-07, No Iterations 5
DILUPBiCGStab:  Solving for Uy, Initial residual = 0.0169327, Final residual = 1.15791e-07, No Iterations 5
DILUPBiCGStab:  Solving for Uz, Initial residual = 0.0324818, Final residual = 2.52897e-07, No Iterations 5
linear solve U 19277
nonePCG:  Solving for p, Initial residual = 0.00727883, Final residual = 9.73128e-05, No Iterations 273
linear solve p 57402
time step continuity errors : sum local = 2.69943e-09, global = -1.49354e-21, cumulative = -2.81385e-20
nonePCG:  Solving for p, Initial residual = 0.00598363, Final residual = 9.82829e-05, No Iterations 270
linear solve p 57381
time step continuity errors : sum local = 2.6993e-09, global = -2.13047e-21, cumulative = -3.02689e-20
ExecutionTime = 3.36 s  ClockTime = 4 s

Time = 0.0015

Courant Number mean: 0.00795861 max: 0.0911006
DILUPBiCGStab:  Solving for Ux, Initial residual = 0.0114468, Final residual = 1.21933e-07, No Iterations 5
DILUPBiCGStab:  Solving for Uy, Initial residual = 0.0156261, Final residual = 1.06497e-07, No Iterations 5
DILUPBiCGStab:  Solving for Uz, Initial residual = 0.0301606, Final residual = 2.23295e-07, No Iterations 5
linear solve U 19319
nonePCG:  Solving for p, Initial residual = 0.00660377, Final residual = 9.84804e-05, No Iterations 271
linear solve p 56158
time step continuity errors : sum local = 2.73801e-09, global = -1.53498e-21, cumulative = -3.18039e-20
nonePCG:  Solving for p, Initial residual = 0.00544384, Final residual = 9.66936e-05, No Iterations 268
linear solve p 56825
time step continuity errors : sum local = 2.67246e-09, global = -3.18107e-21, cumulative = -3.4985e-20
ExecutionTime = 3.51 s  ClockTime = 4 s

Time = 0.0016

Courant Number mean: 0.00817648 max: 0.091377
DILUPBiCGStab:  Solving for Ux, Initial residual = 0.0106404, Final residual = 1.09997e-07, No Iterations 5
DILUPBiCGStab:  Solving for Uy, Initial residual = 0.0144993, Final residual = 9.8644e-08, No Iterations 5
DILUPBiCGStab:  Solving for Uz, Initial residual = 0.0281351, Final residual = 1.99613e-07, No Iterations 5
linear solve U 19668
nonePCG:  Solving for p, Initial residual = 0.00602564, Final residual = 9.89454e-05, No Iterations 269
linear solve p 56149
time step continuity errors : sum local = 2.75838e-09, global = -1.14978e-21, cumulative = -3.61347e-20
nonePCG:  Solving for p, Initial residual = 0.00497909, Final residual = 9.40992e-05, No Iterations 265
linear solve p 56247
time step continuity errors : sum local = 2.61925e-09, global = -1.87104e-21, cumulative = -3.80058e-20
ExecutionTime = 3.67 s  ClockTime = 4 s

Time = 0.0017

Courant Number mean: 0.00838249 max: 0.0916252
DILUPBiCGStab:  Solving for Ux, Initial residual = 0.00993241, Final residual = 1.00066e-07, No Iterations 5
DILUPBiCGStab:  Solving for Uy, Initial residual = 0.0135175, Final residual = 9.19299e-08, No Iterations 5
DILUPBiCGStab:  Solving for Uz, Initial residual = 0.0263525, Final residual = 1.80526e-07, No Iterations 5
linear solve U 19203
nonePCG:  Solving for p, Initial residual = 0.00553496, Final residual = 9.87857e-05, No Iterations 266
linear solve p 55551
time step continuity errors : sum local = 2.76245e-09, global = -2.17567e-21, cumulative = -4.01815e-20
nonePCG:  Solving for p, Initial residual = 0.00458585, Final residual = 9.98375e-05, No Iterations 262
linear solve p 54222
time step continuity errors : sum local = 2.77058e-09, global = -1.37484e-21, cumulative = -4.15563e-20
ExecutionTime = 3.82 s  ClockTime = 5 s

Time = 0.0018

Courant Number mean: 0.00857955 max: 0.0918497
DILUPBiCGStab:  Solving for Ux, Initial residual = 0.00931099, Final residual = 9.16768e-08, No Iterations 5
DILUPBiCGStab:  Solving for Uy, Initial residual = 0.0126547, Final residual = 8.61299e-08, No Iterations 5
DILUPBiCGStab:  Solving for Uz, Initial residual = 0.0247718, Final residual = 1.65055e-07, No Iterations 5
linear solve U 19714
nonePCG:  Solving for p, Initial residual = 0.00513046, Final residual = 9.79487e-05, No Iterations 267
linear solve p 56122
time step continuity errors : sum local = 2.74931e-09, global = -2.77689e-21, cumulative = -4.43332e-20
nonePCG:  Solving for p, Initial residual = 0.00423642, Final residual = 9.15747e-05, No Iterations 262
linear solve p 54732
time step continuity errors : sum local = 2.57516e-09, global = -2.35081e-21, cumulative = -4.6684e-20
ExecutionTime = 3.97 s  ClockTime = 5 s

Time = 0.0019

Courant Number mean: 0.00876813 max: 0.092054
DILUPBiCGStab:  Solving for Ux, Initial residual = 0.00875809, Final residual = 8.45129e-08, No Iterations 5
DILUPBiCGStab:  Solving for Uy, Initial residual = 0.0118904, Final residual = 8.10684e-08, No Iterations 5
DILUPBiCGStab:  Solving for Uz, Initial residual = 0.0233617, Final residual = 1.52146e-07, No Iterations 5
linear solve U 19006
nonePCG:  Solving for p, Initial residual = 0.00471459, Final residual = 9.97698e-05, No Iterations 263
linear solve p 55652
time step continuity errors : sum local = 2.80072e-09, global = -1.55411e-21, cumulative = -4.82381e-20
nonePCG:  Solving for p, Initial residual = 0.00392219, Final residual = 9.82346e-05, No Iterations 259
linear solve p 53209
time step continuity errors : sum local = 2.74761e-09, global = -1.32254e-21, cumulative = -4.95606e-20
ExecutionTime = 4.12 s  ClockTime = 5 s

Time = 0.002

Courant Number mean: 0.00894849 max: 0.0922409
DILUPBiCGStab:  Solving for Ux, Initial residual = 0.00826102, Final residual = 7.83302e-08, No Iterations 5
DILUPBiCGStab:  Solving for Uy, Initial residual = 0.0112088, Final residual = 7.66273e-08, No Iterations 5
DILUPBiCGStab:  Solving for Uz, Initial residual = 0.0220949, Final residual = 1.41457e-07, No Iterations 5
linear solve U 19165
nonePCG:  Solving for p, Initial residual = 0.00444276, Final residual = 9.82701e-05, No Iterations 263
linear solve p 54247
time step continuity errors : sum local = 2.76997e-09, global = -2.53421e-21, cumulative = -5.20948e-20
nonePCG:  Solving for p, Initial residual = 0.0036883, Final residual = 9.63964e-05, No Iterations 255
linear solve p 52555
time step continuity errors : sum local = 2.70923e-09, global = -2.89106e-21, cumulative = -5.49859e-20
ExecutionTime = 4.27 s  ClockTime = 5 s

End

Finalising parallel run
================================================================================
