hash: 6876c56c6d8cbf1f42b3cf4ee624eb8f
/*---------------------------------------------------------------------------*\
| =========                 |                                                 |
| \\      /  F ield         | OpenFOAM: The Open Source CFD Toolbox           |
|  \\    /   O peration     | Version:  v2106                                 |
|   \\  /    A nd           | Website:  www.openfoam.com                      |
|    \\/     M anipulation  |                                                 |
\*---------------------------------------------------------------------------*/
Build  : f815a12bba-20210902 OPENFOAM=2106
Arch   : "LSB;label=32;scalar=64"
Exec   : icoFoam -parallel
Date   : Oct 04 2022
Time   : 11:12:41
Host   : nla-gpu2.ianm.kit.edu
PID    : 1405462
I/O    : uncollated
Case   : /home/greole/data/code/ogl_labbook/lidDrivenCavity/single_node/mesh/100/matrix_solver/CG_NoPrecond_Ginkgo_HIP/mpiRank_gko/8/base
nProcs : 8
Hosts  :
(
    (nla-gpu2.ianm.kit.edu 8)
)
Pstream initialized with:
    floatTransfer      : 0
    nProcsSimpleSum    : 0
    commsType          : nonBlocking
    polling iterations : 0
trapFpe: Floating point exception trapping enabled (FOAM_SIGFPE).
fileModificationChecking : Monitoring run-time modified files using timeStampMaster (fileModificationSkew 5, maxFileModificationPolls 20)
allowSystemOperations : Allowing user-supplied system call operations

// * * * * * * * * * * * * * * * * * * * * * * * * * * * * * * * * * * * * * //
Create time

Create mesh for time = 0


PISO: Operating solver in PISO mode

Reading transportProperties

Reading field p

Reading field U

Reading/calculating face flux field phi


Starting time loop

Time = 0.0001

Courant Number mean: 0 max: 0
DILUPBiCGStab:  Solving for Ux, Initial residual = 1, Final residual = 3.41774e-06, No Iterations 5
DILUPBiCGStab:  Solving for Uy:  solution singularity
DILUPBiCGStab:  Solving for Uz:  solution singularity
linear solve U 79.203 [ms]
piso setup 23.664 [ms]
 correctNonOrthogonal 
 setRef 
 startSolve 
[OGL LOG][lduLduBase.H:107] Initialising OGL
	Version:  1c3dcec
	Branch: distributed-update 
	Ginkgo version: 1.5.0(develop)
	MPI is GPU aware: 1
	Forces host buffer based communication: 1
	CPU ranks per GPU: 1
	Matrix format: Coo
[OGL LOG][Proc: 0]global_index_init: 6.885 [ms]
[OGL LOG][DevicePersistentBase.H:123] initialising p_local_cols
[OGL LOG][Proc: 0]call_init: 0 [ms]
[OGL LOG][DevicePersistentBase.H:123] initialising p_local_rows
[OGL LOG][Proc: 0]call_init: 0 [ms]
[OGL LOG][DevicePersistentBase.H:123] initialising p_local_coeffs
[OGL LOG][Proc: 0]call_init: 0 [ms]
[OGL LOG][DevicePersistentBase.H:123] initialising p_ldu_csr_map
[OGL LOG][Proc: 0]call_init: 0 [ms]
[OGL LOG][DevicePersistentBase.H:123] initialising p_non_local_cols
[OGL LOG][Proc: 0]call_init: 0 [ms]
[OGL LOG][DevicePersistentBase.H:123] initialising p_non_local_rows
[OGL LOG][Proc: 0]call_init: 0 [ms]
[OGL LOG][DevicePersistentBase.H:123] initialising p_non_local_coeffs
[OGL LOG][Proc: 0]call_init: 0 [ms]
[OGL LOG][Proc: 0]init_local_sparsity_pattern: 16.553 [ms]
[OGL LOG][Proc: 0]init_non_local_sparsity_pattern: 5.809 [ms]
[OGL LOG][Proc: 0]update_local_matrix_data: 9.547 [ms]
[OGL LOG][Proc: 0]update_non_local_matrix_data: 4.199 [ms]
[OGL LOG][DevicePersistentBase.H:123] initialising device_partition
[OGL LOG][Proc: 0]call_init: 0 [ms]
[OGL LOG][DevicePersistentBase.H:123] initialising p_matrix
[OGL LOG][Proc: 0]call_init: 0 [ms]
[OGL LOG][DevicePersistentBase.H:123] initialising p_rhs
[OGL LOG][Proc: 0]call_init: 0 [ms]
[OGL LOG][DevicePersistentBase.H:123] initialising p_solution
[OGL LOG][Proc: 0]call_init: 0 [ms]
[OGL LOG][Proc: 0]init_precond: 0.094 [ms]
[OGL LOG][StoppingCriterion.H:588] Creating stopping criterion with minIter 0 frequency 10
[OGL LOG][Proc: 0]generate_solver: 0.035 [ms]
[OGL LOG][Proc: 0]solve: 354.199 [ms]
[OGL LOG][Proc: 0]copy_x_back: 0.355 [ms]
[OGL LOG][lduLduBase.H:297] 
Statistics:
	Time per iteration: 442 [mu s]
	Time per residual norm calculation: 1078.000000 [mu s]
	Time per iteration and DOF: 0.442000 [ns]
	Retrieve results bandwith 2.816000 [GByte/s]
nonehipGKOCG:  Solving for p, Initial residual = 1, Final residual = 7.32914e-05, No Iterations 801
linear solve p 924.525 [ms]
piso step 935.084 [ms]
 contErrors 
time step continuity errors : sum local = 1.29486e-09, global = -2.86231e-22, cumulative = -2.86231e-22
piso setup 17.885 [ms]
 correctNonOrthogonal 
 setRef 
 startSolve 
[OGL LOG][Proc: 0]global_index_init: 0.042 [ms]
[OGL LOG][DevicePersistentBase.H:106] reading p_local_cols from registry
[OGL LOG][DevicePersistentBase.H:106] reading p_local_rows from registry
[OGL LOG][DevicePersistentBase.H:106] reading p_local_coeffs from registry
[OGL LOG][Proc: 0]call_update: 0.004 [ms]
[OGL LOG][DevicePersistentBase.H:106] reading p_ldu_csr_map from registry
[OGL LOG][DevicePersistentBase.H:106] reading p_non_local_cols from registry
[OGL LOG][DevicePersistentBase.H:106] reading p_non_local_rows from registry
[OGL LOG][DevicePersistentBase.H:106] reading p_non_local_coeffs from registry
[OGL LOG][Proc: 0]call_update: 0 [ms]
[OGL LOG][Proc: 0]update_local_matrix_data: 6.013 [ms]
[OGL LOG][Proc: 0]update_non_local_matrix_data: 0.355 [ms]
[OGL LOG][DevicePersistentBase.H:106] reading device_partition from registry
[OGL LOG][DevicePersistentBase.H:106] reading p_matrix from registry
[OGL LOG][Proc: 0]call_update: 14.603 [ms]
[OGL LOG][DevicePersistentBase.H:106] reading p_rhs from registry
[OGL LOG][Proc: 0]call_update: 0.563 [ms]
[OGL LOG][DevicePersistentBase.H:106] reading p_solution from registry
[OGL LOG][Proc: 0]init_precond: 0.061 [ms]
[OGL LOG][StoppingCriterion.H:588] Creating stopping criterion with minIter 480 frequency 10
[OGL LOG][Proc: 0]generate_solver: 0.008 [ms]
[OGL LOG][Proc: 0]solve: 348.266 [ms]
[OGL LOG][Proc: 0]copy_x_back: 0.335 [ms]
[OGL LOG][lduLduBase.H:297] 
Statistics:
	Time per iteration: 445 [mu s]
	Time per residual norm calculation: 126.000000 [mu s]
	Time per iteration and DOF: 0.445000 [ns]
	Retrieve results bandwith 2.985000 [GByte/s]
nonehipGKOCG:  Solving for p, Initial residual = 0.559991, Final residual = 7.78061e-05, No Iterations 781
linear solve p 371.651 [ms]
piso step 378.99 [ms]
 contErrors 
time step continuity errors : sum local = 2.12823e-09, global = -6.27578e-23, cumulative = -3.48989e-22
ExecutionTime = 2.26 s  ClockTime = 3 s

Time = 0.0002

Courant Number mean: 0.00201333 max: 0.0540371
DILUPBiCGStab:  Solving for Ux, Initial residual = 0.216464, Final residual = 2.36891e-06, No Iterations 5
DILUPBiCGStab:  Solving for Uy, Initial residual = 0.309937, Final residual = 1.75831e-06, No Iterations 5
DILUPBiCGStab:  Solving for Uz, Initial residual = 0.981351, Final residual = 5.76078e-06, No Iterations 5
linear solve U 104.248 [ms]
piso setup 16.78 [ms]
 correctNonOrthogonal 
 setRef 
 startSolve 
[OGL LOG][Proc: 0]global_index_init: 0.079 [ms]
[OGL LOG][DevicePersistentBase.H:106] reading p_local_cols from registry
[OGL LOG][DevicePersistentBase.H:106] reading p_local_rows from registry
[OGL LOG][DevicePersistentBase.H:106] reading p_local_coeffs from registry
[OGL LOG][Proc: 0]call_update: 0 [ms]
[OGL LOG][DevicePersistentBase.H:106] reading p_ldu_csr_map from registry
[OGL LOG][DevicePersistentBase.H:106] reading p_non_local_cols from registry
[OGL LOG][DevicePersistentBase.H:106] reading p_non_local_rows from registry
[OGL LOG][DevicePersistentBase.H:106] reading p_non_local_coeffs from registry
[OGL LOG][Proc: 0]call_update: 0 [ms]
[OGL LOG][Proc: 0]update_local_matrix_data: 4.991 [ms]
[OGL LOG][Proc: 0]update_non_local_matrix_data: 1.537 [ms]
[OGL LOG][DevicePersistentBase.H:106] reading device_partition from registry
[OGL LOG][DevicePersistentBase.H:106] reading p_matrix from registry
[OGL LOG][Proc: 0]call_update: 16.578 [ms]
[OGL LOG][DevicePersistentBase.H:106] reading p_rhs from registry
[OGL LOG][Proc: 0]call_update: 1.182 [ms]
[OGL LOG][DevicePersistentBase.H:106] reading p_solution from registry
[OGL LOG][Proc: 0]init_precond: 0.053 [ms]
[OGL LOG][StoppingCriterion.H:588] Creating stopping criterion with minIter 468 frequency 10
[OGL LOG][Proc: 0]generate_solver: 0.003 [ms]
[OGL LOG][Proc: 0]solve: 330.173 [ms]
[OGL LOG][Proc: 0]copy_x_back: 0.449 [ms]
[OGL LOG][lduLduBase.H:297] 
Statistics:
	Time per iteration: 428 [mu s]
	Time per residual norm calculation: 139.000000 [mu s]
	Time per iteration and DOF: 0.428000 [ns]
	Retrieve results bandwith 2.227000 [GByte/s]
nonehipGKOCG:  Solving for p, Initial residual = 0.381674, Final residual = 8.17775e-05, No Iterations 771
linear solve p 356.452 [ms]
piso step 365.351 [ms]
 contErrors 
time step continuity errors : sum local = 2.13868e-09, global = -1.70408e-22, cumulative = -5.19397e-22
piso setup 16.625 [ms]
 correctNonOrthogonal 
 setRef 
 startSolve 
[OGL LOG][Proc: 0]global_index_init: 0.017 [ms]
[OGL LOG][DevicePersistentBase.H:106] reading p_local_cols from registry
[OGL LOG][DevicePersistentBase.H:106] reading p_local_rows from registry
[OGL LOG][DevicePersistentBase.H:106] reading p_local_coeffs from registry
[OGL LOG][Proc: 0]call_update: 0 [ms]
[OGL LOG][DevicePersistentBase.H:106] reading p_ldu_csr_map from registry
[OGL LOG][DevicePersistentBase.H:106] reading p_non_local_cols from registry
[OGL LOG][DevicePersistentBase.H:106] reading p_non_local_rows from registry
[OGL LOG][DevicePersistentBase.H:106] reading p_non_local_coeffs from registry
[OGL LOG][Proc: 0]call_update: 0 [ms]
[OGL LOG][Proc: 0]update_local_matrix_data: 5.817 [ms]
[OGL LOG][Proc: 0]update_non_local_matrix_data: 0.862 [ms]
[OGL LOG][DevicePersistentBase.H:106] reading device_partition from registry
[OGL LOG][DevicePersistentBase.H:106] reading p_matrix from registry
[OGL LOG][Proc: 0]call_update: 12.269 [ms]
[OGL LOG][DevicePersistentBase.H:106] reading p_rhs from registry
[OGL LOG][Proc: 0]call_update: 1.783 [ms]
[OGL LOG][DevicePersistentBase.H:106] reading p_solution from registry
[OGL LOG][Proc: 0]init_precond: 0.053 [ms]
[OGL LOG][StoppingCriterion.H:588] Creating stopping criterion with minIter 462 frequency 10
[OGL LOG][Proc: 0]generate_solver: 0.004 [ms]
[OGL LOG][Proc: 0]solve: 344.115 [ms]
[OGL LOG][Proc: 0]copy_x_back: 0.333 [ms]
[OGL LOG][lduLduBase.H:297] 
Statistics:
	Time per iteration: 446 [mu s]
	Time per residual norm calculation: 132.000000 [mu s]
	Time per iteration and DOF: 0.446000 [ns]
	Retrieve results bandwith 3.003000 [GByte/s]
nonehipGKOCG:  Solving for p, Initial residual = 0.284783, Final residual = 5.60789e-05, No Iterations 771
linear solve p 366.593 [ms]
piso step 373.23 [ms]
 contErrors 
time step continuity errors : sum local = 1.53665e-09, global = -7.96563e-22, cumulative = -1.31596e-21
ExecutionTime = 3.15 s  ClockTime = 3 s

Time = 0.0003

Courant Number mean: 0.00317979 max: 0.0721774
DILUPBiCGStab:  Solving for Ux, Initial residual = 0.0963257, Final residual = 9.73983e-07, No Iterations 5
DILUPBiCGStab:  Solving for Uy, Initial residual = 0.140691, Final residual = 5.64827e-07, No Iterations 5
DILUPBiCGStab:  Solving for Uz, Initial residual = 0.205591, Final residual = 1.2897e-06, No Iterations 5
linear solve U 102.76 [ms]
piso setup 15.469 [ms]
 correctNonOrthogonal 
 setRef 
 startSolve 
[OGL LOG][Proc: 0]global_index_init: 0.039 [ms]
[OGL LOG][DevicePersistentBase.H:106] reading p_local_cols from registry
[OGL LOG][DevicePersistentBase.H:106] reading p_local_rows from registry
[OGL LOG][DevicePersistentBase.H:106] reading p_local_coeffs from registry
[OGL LOG][Proc: 0]call_update: 0 [ms]
[OGL LOG][DevicePersistentBase.H:106] reading p_ldu_csr_map from registry
[OGL LOG][DevicePersistentBase.H:106] reading p_non_local_cols from registry
[OGL LOG][DevicePersistentBase.H:106] reading p_non_local_rows from registry
[OGL LOG][DevicePersistentBase.H:106] reading p_non_local_coeffs from registry
[OGL LOG][Proc: 0]call_update: 0 [ms]
[OGL LOG][Proc: 0]update_local_matrix_data: 4.938 [ms]
[OGL LOG][Proc: 0]update_non_local_matrix_data: 1.503 [ms]
[OGL LOG][DevicePersistentBase.H:106] reading device_partition from registry
[OGL LOG][DevicePersistentBase.H:106] reading p_matrix from registry
[OGL LOG][Proc: 0]call_update: 12.663 [ms]
[OGL LOG][DevicePersistentBase.H:106] reading p_rhs from registry
[OGL LOG][Proc: 0]call_update: 0.635 [ms]
[OGL LOG][DevicePersistentBase.H:106] reading p_solution from registry
[OGL LOG][Proc: 0]init_precond: 0.052 [ms]
[OGL LOG][StoppingCriterion.H:588] Creating stopping criterion with minIter 462 frequency 10
[OGL LOG][Proc: 0]generate_solver: 0.003 [ms]
[OGL LOG][Proc: 0]solve: 310.738 [ms]
[OGL LOG][Proc: 0]copy_x_back: 0.333 [ms]
[OGL LOG][lduLduBase.H:297] 
Statistics:
	Time per iteration: 413 [mu s]
	Time per residual norm calculation: 131.000000 [mu s]
	Time per iteration and DOF: 0.413000 [ns]
	Retrieve results bandwith 3.003000 [GByte/s]
nonehipGKOCG:  Solving for p, Initial residual = 0.128559, Final residual = 9.4067e-05, No Iterations 751
linear solve p 331.716 [ms]
piso step 338.009 [ms]
 contErrors 
time step continuity errors : sum local = 2.21641e-09, global = 3.6614e-22, cumulative = -9.4982e-22
piso setup 12.864 [ms]
 correctNonOrthogonal 
 setRef 
 startSolve 
[OGL LOG][Proc: 0]global_index_init: 0.018 [ms]
[OGL LOG][DevicePersistentBase.H:106] reading p_local_cols from registry
[OGL LOG][DevicePersistentBase.H:106] reading p_local_rows from registry
[OGL LOG][DevicePersistentBase.H:106] reading p_local_coeffs from registry
[OGL LOG][Proc: 0]call_update: 0 [ms]
[OGL LOG][DevicePersistentBase.H:106] reading p_ldu_csr_map from registry
[OGL LOG][DevicePersistentBase.H:106] reading p_non_local_cols from registry
[OGL LOG][DevicePersistentBase.H:106] reading p_non_local_rows from registry
[OGL LOG][DevicePersistentBase.H:106] reading p_non_local_coeffs from registry
[OGL LOG][Proc: 0]call_update: 0 [ms]
[OGL LOG][Proc: 0]update_local_matrix_data: 5.003 [ms]
[OGL LOG][Proc: 0]update_non_local_matrix_data: 0.181 [ms]
[OGL LOG][DevicePersistentBase.H:106] reading device_partition from registry
[OGL LOG][DevicePersistentBase.H:106] reading p_matrix from registry
[OGL LOG][Proc: 0]call_update: 9.024 [ms]
[OGL LOG][DevicePersistentBase.H:106] reading p_rhs from registry
[OGL LOG][Proc: 0]call_update: 0.645 [ms]
[OGL LOG][DevicePersistentBase.H:106] reading p_solution from registry
[OGL LOG][Proc: 0]init_precond: 0.052 [ms]
[OGL LOG][StoppingCriterion.H:588] Creating stopping criterion with minIter 450 frequency 10
[OGL LOG][Proc: 0]generate_solver: 0.007 [ms]
[OGL LOG][Proc: 0]solve: 307.193 [ms]
[OGL LOG][Proc: 0]copy_x_back: 0.33 [ms]
[OGL LOG][lduLduBase.H:297] 
Statistics:
	Time per iteration: 414 [mu s]
	Time per residual norm calculation: 123.000000 [mu s]
	Time per iteration and DOF: 0.414000 [ns]
	Retrieve results bandwith 3.030000 [GByte/s]
nonehipGKOCG:  Solving for p, Initial residual = 0.0995964, Final residual = 8.05891e-05, No Iterations 741
linear solve p 323.254 [ms]
piso step 328.808 [ms]
 contErrors 
time step continuity errors : sum local = 1.92358e-09, global = 1.83805e-22, cumulative = -7.66015e-22
ExecutionTime = 3.97 s  ClockTime = 4 s

Time = 0.0004

Courant Number mean: 0.00397985 max: 0.0793326
DILUPBiCGStab:  Solving for Ux, Initial residual = 0.0593651, Final residual = 4.7211e-07, No Iterations 5
DILUPBiCGStab:  Solving for Uy, Initial residual = 0.0868086, Final residual = 2.90808e-07, No Iterations 5
DILUPBiCGStab:  Solving for Uz, Initial residual = 0.127077, Final residual = 6.27978e-07, No Iterations 5
linear solve U 103.045 [ms]
piso setup 15.104 [ms]
 correctNonOrthogonal 
 setRef 
 startSolve 
[OGL LOG][Proc: 0]global_index_init: 0.03 [ms]
[OGL LOG][DevicePersistentBase.H:106] reading p_local_cols from registry
[OGL LOG][DevicePersistentBase.H:106] reading p_local_rows from registry
[OGL LOG][DevicePersistentBase.H:106] reading p_local_coeffs from registry
[OGL LOG][Proc: 0]call_update: 0 [ms]
[OGL LOG][DevicePersistentBase.H:106] reading p_ldu_csr_map from registry
[OGL LOG][DevicePersistentBase.H:106] reading p_non_local_cols from registry
[OGL LOG][DevicePersistentBase.H:106] reading p_non_local_rows from registry
[OGL LOG][DevicePersistentBase.H:106] reading p_non_local_coeffs from registry
[OGL LOG][Proc: 0]call_update: 0 [ms]
[OGL LOG][Proc: 0]update_local_matrix_data: 4.986 [ms]
[OGL LOG][Proc: 0]update_non_local_matrix_data: 0.175 [ms]
[OGL LOG][DevicePersistentBase.H:106] reading device_partition from registry
[OGL LOG][DevicePersistentBase.H:106] reading p_matrix from registry
[OGL LOG][Proc: 0]call_update: 9.502 [ms]
[OGL LOG][DevicePersistentBase.H:106] reading p_rhs from registry
[OGL LOG][Proc: 0]call_update: 1.554 [ms]
[OGL LOG][DevicePersistentBase.H:106] reading p_solution from registry
[OGL LOG][Proc: 0]init_precond: 0.054 [ms]
[OGL LOG][StoppingCriterion.H:588] Creating stopping criterion with minIter 444 frequency 10
[OGL LOG][Proc: 0]generate_solver: 0.009 [ms]
[OGL LOG][Proc: 0]solve: 337.721 [ms]
[OGL LOG][Proc: 0]copy_x_back: 0.33 [ms]
[OGL LOG][lduLduBase.H:297] 
Statistics:
	Time per iteration: 461 [mu s]
	Time per residual norm calculation: 135.000000 [mu s]
	Time per iteration and DOF: 0.461000 [ns]
	Retrieve results bandwith 3.030000 [GByte/s]
nonehipGKOCG:  Solving for p, Initial residual = 0.0642494, Final residual = 9.117e-05, No Iterations 731
linear solve p 355.538 [ms]
piso step 361.054 [ms]
 contErrors 
time step continuity errors : sum local = 2.11364e-09, global = -1.29014e-21, cumulative = -2.05616e-21
piso setup 17.591 [ms]
 correctNonOrthogonal 
 setRef 
 startSolve 
[OGL LOG][Proc: 0]global_index_init: 0.055 [ms]
[OGL LOG][DevicePersistentBase.H:106] reading p_local_cols from registry
[OGL LOG][DevicePersistentBase.H:106] reading p_local_rows from registry
[OGL LOG][DevicePersistentBase.H:106] reading p_local_coeffs from registry
[OGL LOG][Proc: 0]call_update: 0 [ms]
[OGL LOG][DevicePersistentBase.H:106] reading p_ldu_csr_map from registry
[OGL LOG][DevicePersistentBase.H:106] reading p_non_local_cols from registry
[OGL LOG][DevicePersistentBase.H:106] reading p_non_local_rows from registry
[OGL LOG][DevicePersistentBase.H:106] reading p_non_local_coeffs from registry
[OGL LOG][Proc: 0]call_update: 0 [ms]
[OGL LOG][Proc: 0]update_local_matrix_data: 5.159 [ms]
[OGL LOG][Proc: 0]update_non_local_matrix_data: 1.362 [ms]
[OGL LOG][DevicePersistentBase.H:106] reading device_partition from registry
[OGL LOG][DevicePersistentBase.H:106] reading p_matrix from registry
[OGL LOG][Proc: 0]call_update: 13.402 [ms]
[OGL LOG][DevicePersistentBase.H:106] reading p_rhs from registry
[OGL LOG][Proc: 0]call_update: 0.545 [ms]
[OGL LOG][DevicePersistentBase.H:106] reading p_solution from registry
[OGL LOG][Proc: 0]init_precond: 0.051 [ms]
[OGL LOG][StoppingCriterion.H:588] Creating stopping criterion with minIter 438 frequency 10
[OGL LOG][Proc: 0]generate_solver: 0.004 [ms]
[OGL LOG][Proc: 0]solve: 300.655 [ms]
[OGL LOG][Proc: 0]copy_x_back: 0.333 [ms]
[OGL LOG][lduLduBase.H:297] 
Statistics:
	Time per iteration: 416 [mu s]
	Time per residual norm calculation: 127.000000 [mu s]
	Time per iteration and DOF: 0.416000 [ns]
	Retrieve results bandwith 3.003000 [GByte/s]
nonehipGKOCG:  Solving for p, Initial residual = 0.0496939, Final residual = 9.78743e-05, No Iterations 721
linear solve p 322.893 [ms]
piso step 330.142 [ms]
 contErrors 
time step continuity errors : sum local = 2.30433e-09, global = -2.23184e-23, cumulative = -2.07847e-21
ExecutionTime = 4.82 s  ClockTime = 5 s

Time = 0.0005

Courant Number mean: 0.0046013 max: 0.0828851
DILUPBiCGStab:  Solving for Ux, Initial residual = 0.0428599, Final residual = 3.10042e-07, No Iterations 5
DILUPBiCGStab:  Solving for Uy, Initial residual = 0.061865, Final residual = 1.66959e-07, No Iterations 5
DILUPBiCGStab:  Solving for Uz, Initial residual = 0.097098, Final residual = 4.22279e-07, No Iterations 5
linear solve U 100.951 [ms]
piso setup 14.783 [ms]
 correctNonOrthogonal 
 setRef 
 startSolve 
[OGL LOG][Proc: 0]global_index_init: 0.076 [ms]
[OGL LOG][DevicePersistentBase.H:106] reading p_local_cols from registry
[OGL LOG][DevicePersistentBase.H:106] reading p_local_rows from registry
[OGL LOG][DevicePersistentBase.H:106] reading p_local_coeffs from registry
[OGL LOG][Proc: 0]call_update: 0 [ms]
[OGL LOG][DevicePersistentBase.H:106] reading p_ldu_csr_map from registry
[OGL LOG][DevicePersistentBase.H:106] reading p_non_local_cols from registry
[OGL LOG][DevicePersistentBase.H:106] reading p_non_local_rows from registry
[OGL LOG][DevicePersistentBase.H:106] reading p_non_local_coeffs from registry
[OGL LOG][Proc: 0]call_update: 0 [ms]
[OGL LOG][Proc: 0]update_local_matrix_data: 4.939 [ms]
[OGL LOG][Proc: 0]update_non_local_matrix_data: 1.519 [ms]
[OGL LOG][DevicePersistentBase.H:106] reading device_partition from registry
[OGL LOG][DevicePersistentBase.H:106] reading p_matrix from registry
[OGL LOG][Proc: 0]call_update: 12.562 [ms]
[OGL LOG][DevicePersistentBase.H:106] reading p_rhs from registry
[OGL LOG][Proc: 0]call_update: 1.516 [ms]
[OGL LOG][DevicePersistentBase.H:106] reading p_solution from registry
[OGL LOG][Proc: 0]init_precond: 0.057 [ms]
[OGL LOG][StoppingCriterion.H:588] Creating stopping criterion with minIter 432 frequency 10
[OGL LOG][Proc: 0]generate_solver: 0.008 [ms]
[OGL LOG][Proc: 0]solve: 296.296 [ms]
[OGL LOG][Proc: 0]copy_x_back: 0.333 [ms]
[OGL LOG][lduLduBase.H:297] 
Statistics:
	Time per iteration: 410 [mu s]
	Time per residual norm calculation: 128.000000 [mu s]
	Time per iteration and DOF: 0.410000 [ns]
	Retrieve results bandwith 3.003000 [GByte/s]
nonehipGKOCG:  Solving for p, Initial residual = 0.0389434, Final residual = 7.77603e-05, No Iterations 721
linear solve p 318.096 [ms]
piso step 324.549 [ms]
 contErrors 
time step continuity errors : sum local = 1.829e-09, global = -8.11667e-22, cumulative = -2.89014e-21
piso setup 14.981 [ms]
 correctNonOrthogonal 
 setRef 
 startSolve 
[OGL LOG][Proc: 0]global_index_init: 0.022 [ms]
[OGL LOG][DevicePersistentBase.H:106] reading p_local_cols from registry
[OGL LOG][DevicePersistentBase.H:106] reading p_local_rows from registry
[OGL LOG][DevicePersistentBase.H:106] reading p_local_coeffs from registry
[OGL LOG][Proc: 0]call_update: 0 [ms]
[OGL LOG][DevicePersistentBase.H:106] reading p_ldu_csr_map from registry
[OGL LOG][DevicePersistentBase.H:106] reading p_non_local_cols from registry
[OGL LOG][DevicePersistentBase.H:106] reading p_non_local_rows from registry
[OGL LOG][DevicePersistentBase.H:106] reading p_non_local_coeffs from registry
[OGL LOG][Proc: 0]call_update: 0 [ms]
[OGL LOG][Proc: 0]update_local_matrix_data: 5.019 [ms]
[OGL LOG][Proc: 0]update_non_local_matrix_data: 0.172 [ms]
[OGL LOG][DevicePersistentBase.H:106] reading device_partition from registry
[OGL LOG][DevicePersistentBase.H:106] reading p_matrix from registry
[OGL LOG][Proc: 0]call_update: 8.716 [ms]
[OGL LOG][DevicePersistentBase.H:106] reading p_rhs from registry
[OGL LOG][Proc: 0]call_update: 2.489 [ms]
[OGL LOG][DevicePersistentBase.H:106] reading p_solution from registry
[OGL LOG][Proc: 0]init_precond: 0.058 [ms]
[OGL LOG][StoppingCriterion.H:588] Creating stopping criterion with minIter 432 frequency 10
[OGL LOG][Proc: 0]generate_solver: 0.005 [ms]
[OGL LOG][Proc: 0]solve: 304.596 [ms]
[OGL LOG][Proc: 0]copy_x_back: 0.337 [ms]
[OGL LOG][lduLduBase.H:297] 
Statistics:
	Time per iteration: 422 [mu s]
	Time per residual norm calculation: 125.000000 [mu s]
	Time per iteration and DOF: 0.422000 [ns]
	Retrieve results bandwith 2.967000 [GByte/s]
nonehipGKOCG:  Solving for p, Initial residual = 0.0305781, Final residual = 6.03429e-05, No Iterations 721
linear solve p 322.231 [ms]
piso step 327.907 [ms]
 contErrors 
time step continuity errors : sum local = 1.42947e-09, global = -3.28518e-22, cumulative = -3.21866e-21
ExecutionTime = 5.62 s  ClockTime = 6 s

Time = 0.0006

Courant Number mean: 0.00511864 max: 0.0850108
DILUPBiCGStab:  Solving for Ux, Initial residual = 0.0336738, Final residual = 2.21836e-07, No Iterations 5
DILUPBiCGStab:  Solving for Uy, Initial residual = 0.0480392, Final residual = 1.1549e-07, No Iterations 5
DILUPBiCGStab:  Solving for Uz, Initial residual = 0.079454, Final residual = 3.32714e-07, No Iterations 5
linear solve U 113.868 [ms]
piso setup 19.132 [ms]
 correctNonOrthogonal 
 setRef 
 startSolve 
[OGL LOG][Proc: 0]global_index_init: 0.048 [ms]
[OGL LOG][DevicePersistentBase.H:106] reading p_local_cols from registry
[OGL LOG][DevicePersistentBase.H:106] reading p_local_rows from registry
[OGL LOG][DevicePersistentBase.H:106] reading p_local_coeffs from registry
[OGL LOG][Proc: 0]call_update: 0 [ms]
[OGL LOG][DevicePersistentBase.H:106] reading p_ldu_csr_map from registry
[OGL LOG][DevicePersistentBase.H:106] reading p_non_local_cols from registry
[OGL LOG][DevicePersistentBase.H:106] reading p_non_local_rows from registry
[OGL LOG][DevicePersistentBase.H:106] reading p_non_local_coeffs from registry
[OGL LOG][Proc: 0]call_update: 0 [ms]
[OGL LOG][Proc: 0]update_local_matrix_data: 5.003 [ms]
[OGL LOG][Proc: 0]update_non_local_matrix_data: 1.537 [ms]
[OGL LOG][DevicePersistentBase.H:106] reading device_partition from registry
[OGL LOG][DevicePersistentBase.H:106] reading p_matrix from registry
[OGL LOG][Proc: 0]call_update: 12.777 [ms]
[OGL LOG][DevicePersistentBase.H:106] reading p_rhs from registry
[OGL LOG][Proc: 0]call_update: 0.55 [ms]
[OGL LOG][DevicePersistentBase.H:106] reading p_solution from registry
[OGL LOG][Proc: 0]init_precond: 0.055 [ms]
[OGL LOG][StoppingCriterion.H:588] Creating stopping criterion with minIter 432 frequency 10
[OGL LOG][Proc: 0]generate_solver: 0.015 [ms]
[OGL LOG][Proc: 0]solve: 300.96 [ms]
[OGL LOG][Proc: 0]copy_x_back: 0.332 [ms]
[OGL LOG][lduLduBase.H:297] 
Statistics:
	Time per iteration: 417 [mu s]
	Time per residual norm calculation: 135.000000 [mu s]
	Time per iteration and DOF: 0.417000 [ns]
	Retrieve results bandwith 3.012000 [GByte/s]
nonehipGKOCG:  Solving for p, Initial residual = 0.0268219, Final residual = 5.78768e-05, No Iterations 721
linear solve p 322.12 [ms]
piso step 327.931 [ms]
 contErrors 
time step continuity errors : sum local = 1.37289e-09, global = -1.27248e-21, cumulative = -4.49114e-21
piso setup 14.621 [ms]
 correctNonOrthogonal 
 setRef 
 startSolve 
[OGL LOG][Proc: 0]global_index_init: 0.039 [ms]
[OGL LOG][DevicePersistentBase.H:106] reading p_local_cols from registry
[OGL LOG][DevicePersistentBase.H:106] reading p_local_rows from registry
[OGL LOG][DevicePersistentBase.H:106] reading p_local_coeffs from registry
[OGL LOG][Proc: 0]call_update: 0 [ms]
[OGL LOG][DevicePersistentBase.H:106] reading p_ldu_csr_map from registry
[OGL LOG][DevicePersistentBase.H:106] reading p_non_local_cols from registry
[OGL LOG][DevicePersistentBase.H:106] reading p_non_local_rows from registry
[OGL LOG][DevicePersistentBase.H:106] reading p_non_local_coeffs from registry
[OGL LOG][Proc: 0]call_update: 0 [ms]
[OGL LOG][Proc: 0]update_local_matrix_data: 5.13 [ms]
[OGL LOG][Proc: 0]update_non_local_matrix_data: 0.171 [ms]
[OGL LOG][DevicePersistentBase.H:106] reading device_partition from registry
[OGL LOG][DevicePersistentBase.H:106] reading p_matrix from registry
[OGL LOG][Proc: 0]call_update: 13.654 [ms]
[OGL LOG][DevicePersistentBase.H:106] reading p_rhs from registry
[OGL LOG][Proc: 0]call_update: 0.692 [ms]
[OGL LOG][DevicePersistentBase.H:106] reading p_solution from registry
[OGL LOG][Proc: 0]init_precond: 0.057 [ms]
[OGL LOG][StoppingCriterion.H:588] Creating stopping criterion with minIter 432 frequency 10
[OGL LOG][Proc: 0]generate_solver: 0.007 [ms]
[OGL LOG][Proc: 0]solve: 285.249 [ms]
[OGL LOG][Proc: 0]copy_x_back: 0.339 [ms]
[OGL LOG][lduLduBase.H:297] 
Statistics:
	Time per iteration: 406 [mu s]
	Time per residual norm calculation: 127.000000 [mu s]
	Time per iteration and DOF: 0.406000 [ns]
	Retrieve results bandwith 2.949000 [GByte/s]
nonehipGKOCG:  Solving for p, Initial residual = 0.0212639, Final residual = 9.91126e-05, No Iterations 701
linear solve p 306.152 [ms]
piso step 312.076 [ms]
 contErrors 
time step continuity errors : sum local = 2.36381e-09, global = -7.70912e-22, cumulative = -5.26205e-21
ExecutionTime = 6.42 s  ClockTime = 7 s

Time = 0.0007

Courant Number mean: 0.00556497 max: 0.086455
DILUPBiCGStab:  Solving for Ux, Initial residual = 0.0277685, Final residual = 1.62598e-07, No Iterations 5
DILUPBiCGStab:  Solving for Uy, Initial residual = 0.0392331, Final residual = 8.88414e-08, No Iterations 5
DILUPBiCGStab:  Solving for Uz, Initial residual = 0.0673356, Final residual = 2.6896e-07, No Iterations 5
linear solve U 105.933 [ms]
piso setup 14.885 [ms]
 correctNonOrthogonal 
 setRef 
 startSolve 
[OGL LOG][Proc: 0]global_index_init: 0.018 [ms]
[OGL LOG][DevicePersistentBase.H:106] reading p_local_cols from registry
[OGL LOG][DevicePersistentBase.H:106] reading p_local_rows from registry
[OGL LOG][DevicePersistentBase.H:106] reading p_local_coeffs from registry
[OGL LOG][Proc: 0]call_update: 0 [ms]
[OGL LOG][DevicePersistentBase.H:106] reading p_ldu_csr_map from registry
[OGL LOG][DevicePersistentBase.H:106] reading p_non_local_cols from registry
[OGL LOG][DevicePersistentBase.H:106] reading p_non_local_rows from registry
[OGL LOG][DevicePersistentBase.H:106] reading p_non_local_coeffs from registry
[OGL LOG][Proc: 0]call_update: 0 [ms]
[OGL LOG][Proc: 0]update_local_matrix_data: 5.77 [ms]
[OGL LOG][Proc: 0]update_non_local_matrix_data: 0.295 [ms]
[OGL LOG][DevicePersistentBase.H:106] reading device_partition from registry
[OGL LOG][DevicePersistentBase.H:106] reading p_matrix from registry
[OGL LOG][Proc: 0]call_update: 11.009 [ms]
[OGL LOG][DevicePersistentBase.H:106] reading p_rhs from registry
[OGL LOG][Proc: 0]call_update: 1.052 [ms]
[OGL LOG][DevicePersistentBase.H:106] reading p_solution from registry
[OGL LOG][Proc: 0]init_precond: 0.056 [ms]
[OGL LOG][StoppingCriterion.H:588] Creating stopping criterion with minIter 420 frequency 10
[OGL LOG][Proc: 0]generate_solver: 0.004 [ms]
[OGL LOG][Proc: 0]solve: 172.059 [ms]
[OGL LOG][Proc: 0]copy_x_back: 0.45 [ms]
[OGL LOG][lduLduBase.H:297] 
Statistics:
	Time per iteration: 408 [mu s]
	Time per residual norm calculation: 143.000000 [mu s]
	Time per iteration and DOF: 0.408000 [ns]
	Retrieve results bandwith 2.222000 [GByte/s]
nonehipGKOCG:  Solving for p, Initial residual = 0.0207597, Final residual = 7.8758e-05, No Iterations 421
linear solve p 191.573 [ms]
piso step 197.809 [ms]
 contErrors 
time step continuity errors : sum local = 2.05111e-09, global = -8.64611e-22, cumulative = -6.12666e-21
piso setup 12.801 [ms]
 correctNonOrthogonal 
 setRef 
 startSolve 
[OGL LOG][Proc: 0]global_index_init: 0.024 [ms]
[OGL LOG][DevicePersistentBase.H:106] reading p_local_cols from registry
[OGL LOG][DevicePersistentBase.H:106] reading p_local_rows from registry
[OGL LOG][DevicePersistentBase.H:106] reading p_local_coeffs from registry
[OGL LOG][Proc: 0]call_update: 0 [ms]
[OGL LOG][DevicePersistentBase.H:106] reading p_ldu_csr_map from registry
[OGL LOG][DevicePersistentBase.H:106] reading p_non_local_cols from registry
[OGL LOG][DevicePersistentBase.H:106] reading p_non_local_rows from registry
[OGL LOG][DevicePersistentBase.H:106] reading p_non_local_coeffs from registry
[OGL LOG][Proc: 0]call_update: 0 [ms]
[OGL LOG][Proc: 0]update_local_matrix_data: 5.012 [ms]
[OGL LOG][Proc: 0]update_non_local_matrix_data: 0.179 [ms]
[OGL LOG][DevicePersistentBase.H:106] reading device_partition from registry
[OGL LOG][DevicePersistentBase.H:106] reading p_matrix from registry
[OGL LOG][Proc: 0]call_update: 8.476 [ms]
[OGL LOG][DevicePersistentBase.H:106] reading p_rhs from registry
[OGL LOG][Proc: 0]call_update: 0.706 [ms]
[OGL LOG][DevicePersistentBase.H:106] reading p_solution from registry
[OGL LOG][Proc: 0]init_precond: 0.057 [ms]
[OGL LOG][StoppingCriterion.H:588] Creating stopping criterion with minIter 252 frequency 10
[OGL LOG][Proc: 0]generate_solver: 0.008 [ms]
[OGL LOG][Proc: 0]solve: 124.987 [ms]
[OGL LOG][Proc: 0]copy_x_back: 0.326 [ms]
[OGL LOG][lduLduBase.H:297] 
Statistics:
	Time per iteration: 415 [mu s]
	Time per residual norm calculation: 132.000000 [mu s]
	Time per iteration and DOF: 0.415000 [ns]
	Retrieve results bandwith 3.067000 [GByte/s]
nonehipGKOCG:  Solving for p, Initial residual = 0.016502, Final residual = 7.90264e-05, No Iterations 301
linear solve p 140.56 [ms]
piso step 145.401 [ms]
 contErrors 
time step continuity errors : sum local = 1.96017e-09, global = 2.99884e-22, cumulative = -5.82678e-21
ExecutionTime = 6.93 s  ClockTime = 7 s

Time = 0.0008

Courant Number mean: 0.0059623 max: 0.0875193
DILUPBiCGStab:  Solving for Ux, Initial residual = 0.0236242, Final residual = 1.30749e-07, No Iterations 5
DILUPBiCGStab:  Solving for Uy, Initial residual = 0.0331364, Final residual = 7.13817e-08, No Iterations 5
DILUPBiCGStab:  Solving for Uz, Initial residual = 0.0588444, Final residual = 2.20541e-07, No Iterations 5
linear solve U 101.106 [ms]
piso setup 12.999 [ms]
 correctNonOrthogonal 
 setRef 
 startSolve 
[OGL LOG][Proc: 0]global_index_init: 0.01 [ms]
[OGL LOG][DevicePersistentBase.H:106] reading p_local_cols from registry
[OGL LOG][DevicePersistentBase.H:106] reading p_local_rows from registry
[OGL LOG][DevicePersistentBase.H:106] reading p_local_coeffs from registry
[OGL LOG][Proc: 0]call_update: 0 [ms]
[OGL LOG][DevicePersistentBase.H:106] reading p_ldu_csr_map from registry
[OGL LOG][DevicePersistentBase.H:106] reading p_non_local_cols from registry
[OGL LOG][DevicePersistentBase.H:106] reading p_non_local_rows from registry
[OGL LOG][DevicePersistentBase.H:106] reading p_non_local_coeffs from registry
[OGL LOG][Proc: 0]call_update: 0 [ms]
[OGL LOG][Proc: 0]update_local_matrix_data: 4.91 [ms]
[OGL LOG][Proc: 0]update_non_local_matrix_data: 0.221 [ms]
[OGL LOG][DevicePersistentBase.H:106] reading device_partition from registry
[OGL LOG][DevicePersistentBase.H:106] reading p_matrix from registry
[OGL LOG][Proc: 0]call_update: 10.152 [ms]
[OGL LOG][DevicePersistentBase.H:106] reading p_rhs from registry
[OGL LOG][Proc: 0]call_update: 0.588 [ms]
[OGL LOG][DevicePersistentBase.H:106] reading p_solution from registry
[OGL LOG][Proc: 0]init_precond: 0.056 [ms]
[OGL LOG][StoppingCriterion.H:588] Creating stopping criterion with minIter 180 frequency 10
[OGL LOG][Proc: 0]generate_solver: 0.008 [ms]
[OGL LOG][Proc: 0]solve: 125.914 [ms]
[OGL LOG][Proc: 0]copy_x_back: 0.33 [ms]
[OGL LOG][lduLduBase.H:297] 
Statistics:
	Time per iteration: 418 [mu s]
	Time per residual norm calculation: 127.000000 [mu s]
	Time per iteration and DOF: 0.418000 [ns]
	Retrieve results bandwith 3.030000 [GByte/s]
nonehipGKOCG:  Solving for p, Initial residual = 0.016647, Final residual = 7.93218e-05, No Iterations 301
linear solve p 143.169 [ms]
piso step 148.75 [ms]
 contErrors 
time step continuity errors : sum local = 2.0441e-09, global = -5.95617e-22, cumulative = -6.42239e-21
piso setup 12.03 [ms]
 correctNonOrthogonal 
 setRef 
 startSolve 
[OGL LOG][Proc: 0]global_index_init: 0.019 [ms]
[OGL LOG][DevicePersistentBase.H:106] reading p_local_cols from registry
[OGL LOG][DevicePersistentBase.H:106] reading p_local_rows from registry
[OGL LOG][DevicePersistentBase.H:106] reading p_local_coeffs from registry
[OGL LOG][Proc: 0]call_update: 0 [ms]
[OGL LOG][DevicePersistentBase.H:106] reading p_ldu_csr_map from registry
[OGL LOG][DevicePersistentBase.H:106] reading p_non_local_cols from registry
[OGL LOG][DevicePersistentBase.H:106] reading p_non_local_rows from registry
[OGL LOG][DevicePersistentBase.H:106] reading p_non_local_coeffs from registry
[OGL LOG][Proc: 0]call_update: 0 [ms]
[OGL LOG][Proc: 0]update_local_matrix_data: 5.061 [ms]
[OGL LOG][Proc: 0]update_non_local_matrix_data: 0.187 [ms]
[OGL LOG][DevicePersistentBase.H:106] reading device_partition from registry
[OGL LOG][DevicePersistentBase.H:106] reading p_matrix from registry
[OGL LOG][Proc: 0]call_update: 10.584 [ms]
[OGL LOG][DevicePersistentBase.H:106] reading p_rhs from registry
[OGL LOG][Proc: 0]call_update: 0.815 [ms]
[OGL LOG][DevicePersistentBase.H:106] reading p_solution from registry
[OGL LOG][Proc: 0]init_precond: 0.057 [ms]
[OGL LOG][StoppingCriterion.H:588] Creating stopping criterion with minIter 180 frequency 10
[OGL LOG][Proc: 0]generate_solver: 0.004 [ms]
[OGL LOG][Proc: 0]solve: 128.178 [ms]
[OGL LOG][Proc: 0]copy_x_back: 0.33 [ms]
[OGL LOG][lduLduBase.H:297] 
Statistics:
	Time per iteration: 440 [mu s]
	Time per residual norm calculation: 129.000000 [mu s]
	Time per iteration and DOF: 0.440000 [ns]
	Retrieve results bandwith 3.030000 [GByte/s]
nonehipGKOCG:  Solving for p, Initial residual = 0.0133412, Final residual = 8.42578e-05, No Iterations 291
linear solve p 146.025 [ms]
piso step 150.778 [ms]
 contErrors 
time step continuity errors : sum local = 2.1119e-09, global = -8.20439e-22, cumulative = -7.24283e-21
ExecutionTime = 7.37 s  ClockTime = 8 s

Time = 0.0009

Courant Number mean: 0.00631847 max: 0.0883467
DILUPBiCGStab:  Solving for Ux, Initial residual = 0.0205606, Final residual = 1.09907e-07, No Iterations 5
DILUPBiCGStab:  Solving for Uy, Initial residual = 0.0286496, Final residual = 5.97128e-08, No Iterations 5
DILUPBiCGStab:  Solving for Uz, Initial residual = 0.0519918, Final residual = 1.80525e-07, No Iterations 5
linear solve U 108.156 [ms]
piso setup 15.924 [ms]
 correctNonOrthogonal 
 setRef 
 startSolve 
[OGL LOG][Proc: 0]global_index_init: 0.044 [ms]
[OGL LOG][DevicePersistentBase.H:106] reading p_local_cols from registry
[OGL LOG][DevicePersistentBase.H:106] reading p_local_rows from registry
[OGL LOG][DevicePersistentBase.H:106] reading p_local_coeffs from registry
[OGL LOG][Proc: 0]call_update: 0 [ms]
[OGL LOG][DevicePersistentBase.H:106] reading p_ldu_csr_map from registry
[OGL LOG][DevicePersistentBase.H:106] reading p_non_local_cols from registry
[OGL LOG][DevicePersistentBase.H:106] reading p_non_local_rows from registry
[OGL LOG][DevicePersistentBase.H:106] reading p_non_local_coeffs from registry
[OGL LOG][Proc: 0]call_update: 0 [ms]
[OGL LOG][Proc: 0]update_local_matrix_data: 4.931 [ms]
[OGL LOG][Proc: 0]update_non_local_matrix_data: 0.226 [ms]
[OGL LOG][DevicePersistentBase.H:106] reading device_partition from registry
[OGL LOG][DevicePersistentBase.H:106] reading p_matrix from registry
[OGL LOG][Proc: 0]call_update: 16.21 [ms]
[OGL LOG][DevicePersistentBase.H:106] reading p_rhs from registry
[OGL LOG][Proc: 0]call_update: 0.451 [ms]
[OGL LOG][DevicePersistentBase.H:106] reading p_solution from registry
[OGL LOG][Proc: 0]init_precond: 0.054 [ms]
[OGL LOG][StoppingCriterion.H:588] Creating stopping criterion with minIter 174 frequency 10
[OGL LOG][Proc: 0]generate_solver: 0.004 [ms]
[OGL LOG][Proc: 0]solve: 135.32 [ms]
[OGL LOG][Proc: 0]copy_x_back: 0.334 [ms]
[OGL LOG][lduLduBase.H:297] 
Statistics:
	Time per iteration: 465 [mu s]
	Time per residual norm calculation: 129.000000 [mu s]
	Time per iteration and DOF: 0.465000 [ns]
	Retrieve results bandwith 2.994000 [GByte/s]
nonehipGKOCG:  Solving for p, Initial residual = 0.013841, Final residual = 9.01029e-05, No Iterations 291
linear solve p 158.761 [ms]
piso step 164.166 [ms]
 contErrors 
time step continuity errors : sum local = 2.33725e-09, global = -1.26214e-21, cumulative = -8.50497e-21
piso setup 15.341 [ms]
 correctNonOrthogonal 
 setRef 
 startSolve 
[OGL LOG][Proc: 0]global_index_init: 0.023 [ms]
[OGL LOG][DevicePersistentBase.H:106] reading p_local_cols from registry
[OGL LOG][DevicePersistentBase.H:106] reading p_local_rows from registry
[OGL LOG][DevicePersistentBase.H:106] reading p_local_coeffs from registry
[OGL LOG][Proc: 0]call_update: 0 [ms]
[OGL LOG][DevicePersistentBase.H:106] reading p_ldu_csr_map from registry
[OGL LOG][DevicePersistentBase.H:106] reading p_non_local_cols from registry
[OGL LOG][DevicePersistentBase.H:106] reading p_non_local_rows from registry
[OGL LOG][DevicePersistentBase.H:106] reading p_non_local_coeffs from registry
[OGL LOG][Proc: 0]call_update: 0 [ms]
[OGL LOG][Proc: 0]update_local_matrix_data: 5.048 [ms]
[OGL LOG][Proc: 0]update_non_local_matrix_data: 1.449 [ms]
[OGL LOG][DevicePersistentBase.H:106] reading device_partition from registry
[OGL LOG][DevicePersistentBase.H:106] reading p_matrix from registry
[OGL LOG][Proc: 0]call_update: 9.83 [ms]
[OGL LOG][DevicePersistentBase.H:106] reading p_rhs from registry
[OGL LOG][Proc: 0]call_update: 1.932 [ms]
[OGL LOG][DevicePersistentBase.H:106] reading p_solution from registry
[OGL LOG][Proc: 0]init_precond: 0.056 [ms]
[OGL LOG][StoppingCriterion.H:588] Creating stopping criterion with minIter 174 frequency 10
[OGL LOG][Proc: 0]generate_solver: 0.004 [ms]
[OGL LOG][Proc: 0]solve: 130.182 [ms]
[OGL LOG][Proc: 0]copy_x_back: 0.326 [ms]
[OGL LOG][lduLduBase.H:297] 
Statistics:
	Time per iteration: 447 [mu s]
	Time per residual norm calculation: 133.000000 [mu s]
	Time per iteration and DOF: 0.447000 [ns]
	Retrieve results bandwith 3.067000 [GByte/s]
nonehipGKOCG:  Solving for p, Initial residual = 0.0111537, Final residual = 6.50581e-05, No Iterations 291
linear solve p 149.659 [ms]
piso step 155.97 [ms]
 contErrors 
time step continuity errors : sum local = 1.67879e-09, global = 8.84649e-22, cumulative = -7.62032e-21
ExecutionTime = 7.85 s  ClockTime = 8 s

Time = 0.001

Courant Number mean: 0.00664438 max: 0.0890141
DILUPBiCGStab:  Solving for Ux, Initial residual = 0.0181844, Final residual = 9.44108e-08, No Iterations 5
DILUPBiCGStab:  Solving for Uy, Initial residual = 0.0252124, Final residual = 5.13983e-08, No Iterations 5
DILUPBiCGStab:  Solving for Uz, Initial residual = 0.046502, Final residual = 1.48245e-07, No Iterations 5
linear solve U 102.322 [ms]
piso setup 11.998 [ms]
 correctNonOrthogonal 
 setRef 
 startSolve 
[OGL LOG][Proc: 0]global_index_init: 0.037 [ms]
[OGL LOG][DevicePersistentBase.H:106] reading p_local_cols from registry
[OGL LOG][DevicePersistentBase.H:106] reading p_local_rows from registry
[OGL LOG][DevicePersistentBase.H:106] reading p_local_coeffs from registry
[OGL LOG][Proc: 0]call_update: 0 [ms]
[OGL LOG][DevicePersistentBase.H:106] reading p_ldu_csr_map from registry
[OGL LOG][DevicePersistentBase.H:106] reading p_non_local_cols from registry
[OGL LOG][DevicePersistentBase.H:106] reading p_non_local_rows from registry
[OGL LOG][DevicePersistentBase.H:106] reading p_non_local_coeffs from registry
[OGL LOG][Proc: 0]call_update: 0 [ms]
[OGL LOG][Proc: 0]update_local_matrix_data: 5.101 [ms]
[OGL LOG][Proc: 0]update_non_local_matrix_data: 0.165 [ms]
[OGL LOG][DevicePersistentBase.H:106] reading device_partition from registry
[OGL LOG][DevicePersistentBase.H:106] reading p_matrix from registry
[OGL LOG][Proc: 0]call_update: 11.624 [ms]
[OGL LOG][DevicePersistentBase.H:106] reading p_rhs from registry
[OGL LOG][Proc: 0]call_update: 0.821 [ms]
[OGL LOG][DevicePersistentBase.H:106] reading p_solution from registry
[OGL LOG][Proc: 0]init_precond: 0.055 [ms]
[OGL LOG][StoppingCriterion.H:588] Creating stopping criterion with minIter 174 frequency 10
[OGL LOG][Proc: 0]generate_solver: 0.008 [ms]
[OGL LOG][Proc: 0]solve: 124.217 [ms]
[OGL LOG][Proc: 0]copy_x_back: 0.341 [ms]
[OGL LOG][lduLduBase.H:297] 
Statistics:
	Time per iteration: 426 [mu s]
	Time per residual norm calculation: 130.000000 [mu s]
	Time per iteration and DOF: 0.426000 [ns]
	Retrieve results bandwith 2.932000 [GByte/s]
nonehipGKOCG:  Solving for p, Initial residual = 0.0118227, Final residual = 7.79615e-05, No Iterations 291
linear solve p 143.137 [ms]
piso step 148.765 [ms]
 contErrors 
time step continuity errors : sum local = 2.05468e-09, global = -5.82449e-22, cumulative = -8.20277e-21
piso setup 11.538 [ms]
 correctNonOrthogonal 
 setRef 
 startSolve 
[OGL LOG][Proc: 0]global_index_init: 0.013 [ms]
[OGL LOG][DevicePersistentBase.H:106] reading p_local_cols from registry
[OGL LOG][DevicePersistentBase.H:106] reading p_local_rows from registry
[OGL LOG][DevicePersistentBase.H:106] reading p_local_coeffs from registry
[OGL LOG][Proc: 0]call_update: 0 [ms]
[OGL LOG][DevicePersistentBase.H:106] reading p_ldu_csr_map from registry
[OGL LOG][DevicePersistentBase.H:106] reading p_non_local_cols from registry
[OGL LOG][DevicePersistentBase.H:106] reading p_non_local_rows from registry
[OGL LOG][DevicePersistentBase.H:106] reading p_non_local_coeffs from registry
[OGL LOG][Proc: 0]call_update: 0 [ms]
[OGL LOG][Proc: 0]update_local_matrix_data: 5.034 [ms]
[OGL LOG][Proc: 0]update_non_local_matrix_data: 0.172 [ms]
[OGL LOG][DevicePersistentBase.H:106] reading device_partition from registry
[OGL LOG][DevicePersistentBase.H:106] reading p_matrix from registry
[OGL LOG][Proc: 0]call_update: 8.425 [ms]
[OGL LOG][DevicePersistentBase.H:106] reading p_rhs from registry
[OGL LOG][Proc: 0]call_update: 0.997 [ms]
[OGL LOG][DevicePersistentBase.H:106] reading p_solution from registry
[OGL LOG][Proc: 0]init_precond: 0.055 [ms]
[OGL LOG][StoppingCriterion.H:588] Creating stopping criterion with minIter 174 frequency 10
[OGL LOG][Proc: 0]generate_solver: 0.006 [ms]
[OGL LOG][Proc: 0]solve: 120.217 [ms]
[OGL LOG][Proc: 0]copy_x_back: 0.34 [ms]
[OGL LOG][lduLduBase.H:297] 
Statistics:
	Time per iteration: 427 [mu s]
	Time per residual norm calculation: 123.000000 [mu s]
	Time per iteration and DOF: 0.427000 [ns]
	Retrieve results bandwith 2.941000 [GByte/s]
nonehipGKOCG:  Solving for p, Initial residual = 0.0095653, Final residual = 9.40949e-05, No Iterations 281
linear solve p 136.052 [ms]
piso step 142.283 [ms]
 contErrors 
time step continuity errors : sum local = 2.40638e-09, global = -3.40902e-23, cumulative = -8.23686e-21
ExecutionTime = 8.3 s  ClockTime = 9 s

Time = 0.0011

Courant Number mean: 0.00694533 max: 0.0895673
DILUPBiCGStab:  Solving for Ux, Initial residual = 0.016298, Final residual = 8.23133e-08, No Iterations 5
DILUPBiCGStab:  Solving for Uy, Initial residual = 0.0224933, Final residual = 4.516e-08, No Iterations 5
DILUPBiCGStab:  Solving for Uz, Initial residual = 0.0420277, Final residual = 1.22458e-07, No Iterations 5
linear solve U 101.162 [ms]
piso setup 12.697 [ms]
 correctNonOrthogonal 
 setRef 
 startSolve 
[OGL LOG][Proc: 0]global_index_init: 0.016 [ms]
[OGL LOG][DevicePersistentBase.H:106] reading p_local_cols from registry
[OGL LOG][DevicePersistentBase.H:106] reading p_local_rows from registry
[OGL LOG][DevicePersistentBase.H:106] reading p_local_coeffs from registry
[OGL LOG][Proc: 0]call_update: 0 [ms]
[OGL LOG][DevicePersistentBase.H:106] reading p_ldu_csr_map from registry
[OGL LOG][DevicePersistentBase.H:106] reading p_non_local_cols from registry
[OGL LOG][DevicePersistentBase.H:106] reading p_non_local_rows from registry
[OGL LOG][DevicePersistentBase.H:106] reading p_non_local_coeffs from registry
[OGL LOG][Proc: 0]call_update: 0 [ms]
[OGL LOG][Proc: 0]update_local_matrix_data: 4.913 [ms]
[OGL LOG][Proc: 0]update_non_local_matrix_data: 0.191 [ms]
[OGL LOG][DevicePersistentBase.H:106] reading device_partition from registry
[OGL LOG][DevicePersistentBase.H:106] reading p_matrix from registry
[OGL LOG][Proc: 0]call_update: 8.369 [ms]
[OGL LOG][DevicePersistentBase.H:106] reading p_rhs from registry
[OGL LOG][Proc: 0]call_update: 2.619 [ms]
[OGL LOG][DevicePersistentBase.H:106] reading p_solution from registry
[OGL LOG][Proc: 0]init_precond: 0.058 [ms]
[OGL LOG][StoppingCriterion.H:588] Creating stopping criterion with minIter 168 frequency 10
[OGL LOG][Proc: 0]generate_solver: 0.007 [ms]
[OGL LOG][Proc: 0]solve: 124.656 [ms]
[OGL LOG][Proc: 0]copy_x_back: 0.335 [ms]
[OGL LOG][lduLduBase.H:297] 
Statistics:
	Time per iteration: 428 [mu s]
	Time per residual norm calculation: 128.000000 [mu s]
	Time per iteration and DOF: 0.428000 [ns]
	Retrieve results bandwith 2.985000 [GByte/s]
nonehipGKOCG:  Solving for p, Initial residual = 0.0102521, Final residual = 6.6362e-05, No Iterations 291
linear solve p 141.935 [ms]
piso step 147.486 [ms]
 contErrors 
time step continuity errors : sum local = 1.7882e-09, global = -1.45755e-21, cumulative = -9.69441e-21
piso setup 11.57 [ms]
 correctNonOrthogonal 
 setRef 
 startSolve 
[OGL LOG][Proc: 0]global_index_init: 0.009 [ms]
[OGL LOG][DevicePersistentBase.H:106] reading p_local_cols from registry
[OGL LOG][DevicePersistentBase.H:106] reading p_local_rows from registry
[OGL LOG][DevicePersistentBase.H:106] reading p_local_coeffs from registry
[OGL LOG][Proc: 0]call_update: 0 [ms]
[OGL LOG][DevicePersistentBase.H:106] reading p_ldu_csr_map from registry
[OGL LOG][DevicePersistentBase.H:106] reading p_non_local_cols from registry
[OGL LOG][DevicePersistentBase.H:106] reading p_non_local_rows from registry
[OGL LOG][DevicePersistentBase.H:106] reading p_non_local_coeffs from registry
[OGL LOG][Proc: 0]call_update: 0 [ms]
[OGL LOG][Proc: 0]update_local_matrix_data: 5.041 [ms]
[OGL LOG][Proc: 0]update_non_local_matrix_data: 0.168 [ms]
[OGL LOG][DevicePersistentBase.H:106] reading device_partition from registry
[OGL LOG][DevicePersistentBase.H:106] reading p_matrix from registry
[OGL LOG][Proc: 0]call_update: 8.76 [ms]
[OGL LOG][DevicePersistentBase.H:106] reading p_rhs from registry
[OGL LOG][Proc: 0]call_update: 0.928 [ms]
[OGL LOG][DevicePersistentBase.H:106] reading p_solution from registry
[OGL LOG][Proc: 0]init_precond: 0.06 [ms]
[OGL LOG][StoppingCriterion.H:588] Creating stopping criterion with minIter 174 frequency 10
[OGL LOG][Proc: 0]generate_solver: 0.007 [ms]
[OGL LOG][Proc: 0]solve: 119.204 [ms]
[OGL LOG][Proc: 0]copy_x_back: 0.339 [ms]
[OGL LOG][lduLduBase.H:297] 
Statistics:
	Time per iteration: 424 [mu s]
	Time per residual norm calculation: 128.000000 [mu s]
	Time per iteration and DOF: 0.424000 [ns]
	Retrieve results bandwith 2.949000 [GByte/s]
nonehipGKOCG:  Solving for p, Initial residual = 0.00829092, Final residual = 8.15388e-05, No Iterations 281
linear solve p 135.305 [ms]
piso step 140.419 [ms]
 contErrors 
time step continuity errors : sum local = 2.12209e-09, global = 1.13282e-22, cumulative = -9.58113e-21
ExecutionTime = 8.73 s  ClockTime = 9 s

Time = 0.0012

Courant Number mean: 0.0072238 max: 0.0900356
DILUPBiCGStab:  Solving for Ux, Initial residual = 0.0147478, Final residual = 7.26046e-08, No Iterations 5
DILUPBiCGStab:  Solving for Uy, Initial residual = 0.0202889, Final residual = 4.02708e-08, No Iterations 5
DILUPBiCGStab:  Solving for Uz, Initial residual = 0.0382998, Final residual = 1.02242e-07, No Iterations 5
linear solve U 102.475 [ms]
piso setup 13.147 [ms]
 correctNonOrthogonal 
 setRef 
 startSolve 
[OGL LOG][Proc: 0]global_index_init: 0.022 [ms]
[OGL LOG][DevicePersistentBase.H:106] reading p_local_cols from registry
[OGL LOG][DevicePersistentBase.H:106] reading p_local_rows from registry
[OGL LOG][DevicePersistentBase.H:106] reading p_local_coeffs from registry
[OGL LOG][Proc: 0]call_update: 0 [ms]
[OGL LOG][DevicePersistentBase.H:106] reading p_ldu_csr_map from registry
[OGL LOG][DevicePersistentBase.H:106] reading p_non_local_cols from registry
[OGL LOG][DevicePersistentBase.H:106] reading p_non_local_rows from registry
[OGL LOG][DevicePersistentBase.H:106] reading p_non_local_coeffs from registry
[OGL LOG][Proc: 0]call_update: 0 [ms]
[OGL LOG][Proc: 0]update_local_matrix_data: 4.929 [ms]
[OGL LOG][Proc: 0]update_non_local_matrix_data: 1.413 [ms]
[OGL LOG][DevicePersistentBase.H:106] reading device_partition from registry
[OGL LOG][DevicePersistentBase.H:106] reading p_matrix from registry
[OGL LOG][Proc: 0]call_update: 9.793 [ms]
[OGL LOG][DevicePersistentBase.H:106] reading p_rhs from registry
[OGL LOG][Proc: 0]call_update: 0.497 [ms]
[OGL LOG][DevicePersistentBase.H:106] reading p_solution from registry
[OGL LOG][Proc: 0]init_precond: 0.053 [ms]
[OGL LOG][StoppingCriterion.H:588] Creating stopping criterion with minIter 168 frequency 10
[OGL LOG][Proc: 0]generate_solver: 0.005 [ms]
[OGL LOG][Proc: 0]solve: 121.723 [ms]
[OGL LOG][Proc: 0]copy_x_back: 0.336 [ms]
[OGL LOG][lduLduBase.H:297] 
Statistics:
	Time per iteration: 433 [mu s]
	Time per residual norm calculation: 126.000000 [mu s]
	Time per iteration and DOF: 0.433000 [ns]
	Retrieve results bandwith 2.976000 [GByte/s]
nonehipGKOCG:  Solving for p, Initial residual = 0.00896473, Final residual = 8.9657e-05, No Iterations 281
linear solve p 139.656 [ms]
piso step 145.765 [ms]
 contErrors 
time step continuity errors : sum local = 2.36839e-09, global = -6.0045e-22, cumulative = -1.01816e-20
piso setup 12.436 [ms]
 correctNonOrthogonal 
 setRef 
 startSolve 
[OGL LOG][Proc: 0]global_index_init: 0.013 [ms]
[OGL LOG][DevicePersistentBase.H:106] reading p_local_cols from registry
[OGL LOG][DevicePersistentBase.H:106] reading p_local_rows from registry
[OGL LOG][DevicePersistentBase.H:106] reading p_local_coeffs from registry
[OGL LOG][Proc: 0]call_update: 0 [ms]
[OGL LOG][DevicePersistentBase.H:106] reading p_ldu_csr_map from registry
[OGL LOG][DevicePersistentBase.H:106] reading p_non_local_cols from registry
[OGL LOG][DevicePersistentBase.H:106] reading p_non_local_rows from registry
[OGL LOG][DevicePersistentBase.H:106] reading p_non_local_coeffs from registry
[OGL LOG][Proc: 0]call_update: 0 [ms]
[OGL LOG][Proc: 0]update_local_matrix_data: 5.028 [ms]
[OGL LOG][Proc: 0]update_non_local_matrix_data: 0.17 [ms]
[OGL LOG][DevicePersistentBase.H:106] reading device_partition from registry
[OGL LOG][DevicePersistentBase.H:106] reading p_matrix from registry
[OGL LOG][Proc: 0]call_update: 8.408 [ms]
[OGL LOG][DevicePersistentBase.H:106] reading p_rhs from registry
[OGL LOG][Proc: 0]call_update: 0.852 [ms]
[OGL LOG][DevicePersistentBase.H:106] reading p_solution from registry
[OGL LOG][Proc: 0]init_precond: 0.056 [ms]
[OGL LOG][StoppingCriterion.H:588] Creating stopping criterion with minIter 168 frequency 10
[OGL LOG][Proc: 0]generate_solver: 0.007 [ms]
[OGL LOG][Proc: 0]solve: 119.215 [ms]
[OGL LOG][Proc: 0]copy_x_back: 0.335 [ms]
[OGL LOG][lduLduBase.H:297] 
Statistics:
	Time per iteration: 424 [mu s]
	Time per residual norm calculation: 130.000000 [mu s]
	Time per iteration and DOF: 0.424000 [ns]
	Retrieve results bandwith 2.985000 [GByte/s]
nonehipGKOCG:  Solving for p, Initial residual = 0.00730902, Final residual = 6.80601e-05, No Iterations 281
linear solve p 134.881 [ms]
piso step 139.703 [ms]
 contErrors 
time step continuity errors : sum local = 1.80999e-09, global = 9.92865e-22, cumulative = -9.18872e-21
ExecutionTime = 9.18 s  ClockTime = 10 s

Time = 0.0013

Courant Number mean: 0.00748302 max: 0.0904387
DILUPBiCGStab:  Solving for Ux, Initial residual = 0.0134666, Final residual = 6.47275e-08, No Iterations 5
DILUPBiCGStab:  Solving for Uy, Initial residual = 0.0184656, Final residual = 3.6307e-08, No Iterations 5
DILUPBiCGStab:  Solving for Uz, Initial residual = 0.0351613, Final residual = 8.66716e-08, No Iterations 5
linear solve U 101.271 [ms]
piso setup 12.019 [ms]
 correctNonOrthogonal 
 setRef 
 startSolve 
[OGL LOG][Proc: 0]global_index_init: 0.022 [ms]
[OGL LOG][DevicePersistentBase.H:106] reading p_local_cols from registry
[OGL LOG][DevicePersistentBase.H:106] reading p_local_rows from registry
[OGL LOG][DevicePersistentBase.H:106] reading p_local_coeffs from registry
[OGL LOG][Proc: 0]call_update: 0 [ms]
[OGL LOG][DevicePersistentBase.H:106] reading p_ldu_csr_map from registry
[OGL LOG][DevicePersistentBase.H:106] reading p_non_local_cols from registry
[OGL LOG][DevicePersistentBase.H:106] reading p_non_local_rows from registry
[OGL LOG][DevicePersistentBase.H:106] reading p_non_local_coeffs from registry
[OGL LOG][Proc: 0]call_update: 0 [ms]
[OGL LOG][Proc: 0]update_local_matrix_data: 4.931 [ms]
[OGL LOG][Proc: 0]update_non_local_matrix_data: 0.175 [ms]
[OGL LOG][DevicePersistentBase.H:106] reading device_partition from registry
[OGL LOG][DevicePersistentBase.H:106] reading p_matrix from registry
[OGL LOG][Proc: 0]call_update: 10.545 [ms]
[OGL LOG][DevicePersistentBase.H:106] reading p_rhs from registry
[OGL LOG][Proc: 0]call_update: 0.498 [ms]
[OGL LOG][DevicePersistentBase.H:106] reading p_solution from registry
[OGL LOG][Proc: 0]init_precond: 0.056 [ms]
[OGL LOG][StoppingCriterion.H:588] Creating stopping criterion with minIter 168 frequency 10
[OGL LOG][Proc: 0]generate_solver: 0.01 [ms]
[OGL LOG][Proc: 0]solve: 119.988 [ms]
[OGL LOG][Proc: 0]copy_x_back: 0.331 [ms]
[OGL LOG][lduLduBase.H:297] 
Statistics:
	Time per iteration: 427 [mu s]
	Time per residual norm calculation: 133.000000 [mu s]
	Time per iteration and DOF: 0.427000 [ns]
	Retrieve results bandwith 3.021000 [GByte/s]
nonehipGKOCG:  Solving for p, Initial residual = 0.00804696, Final residual = 8.4319e-05, No Iterations 281
linear solve p 137.351 [ms]
piso step 142.022 [ms]
 contErrors 
time step continuity errors : sum local = 2.25054e-09, global = -3.23717e-22, cumulative = -9.51243e-21
piso setup 11.433 [ms]
 correctNonOrthogonal 
 setRef 
 startSolve 
[OGL LOG][Proc: 0]global_index_init: 0.026 [ms]
[OGL LOG][DevicePersistentBase.H:106] reading p_local_cols from registry
[OGL LOG][DevicePersistentBase.H:106] reading p_local_rows from registry
[OGL LOG][DevicePersistentBase.H:106] reading p_local_coeffs from registry
[OGL LOG][Proc: 0]call_update: 0 [ms]
[OGL LOG][DevicePersistentBase.H:106] reading p_ldu_csr_map from registry
[OGL LOG][DevicePersistentBase.H:106] reading p_non_local_cols from registry
[OGL LOG][DevicePersistentBase.H:106] reading p_non_local_rows from registry
[OGL LOG][DevicePersistentBase.H:106] reading p_non_local_coeffs from registry
[OGL LOG][Proc: 0]call_update: 0 [ms]
[OGL LOG][Proc: 0]update_local_matrix_data: 5.038 [ms]
[OGL LOG][Proc: 0]update_non_local_matrix_data: 0.173 [ms]
[OGL LOG][DevicePersistentBase.H:106] reading device_partition from registry
[OGL LOG][DevicePersistentBase.H:106] reading p_matrix from registry
[OGL LOG][Proc: 0]call_update: 10.265 [ms]
[OGL LOG][DevicePersistentBase.H:106] reading p_rhs from registry
[OGL LOG][Proc: 0]call_update: 0.609 [ms]
[OGL LOG][DevicePersistentBase.H:106] reading p_solution from registry
[OGL LOG][Proc: 0]init_precond: 0.055 [ms]
[OGL LOG][StoppingCriterion.H:588] Creating stopping criterion with minIter 168 frequency 10
[OGL LOG][Proc: 0]generate_solver: 0.007 [ms]
[OGL LOG][Proc: 0]solve: 113.899 [ms]
[OGL LOG][Proc: 0]copy_x_back: 0.332 [ms]
[OGL LOG][lduLduBase.H:297] 
Statistics:
	Time per iteration: 420 [mu s]
	Time per residual norm calculation: 130.000000 [mu s]
	Time per iteration and DOF: 0.420000 [ns]
	Retrieve results bandwith 3.012000 [GByte/s]
nonehipGKOCG:  Solving for p, Initial residual = 0.006582, Final residual = 9.96089e-05, No Iterations 271
linear solve p 131.314 [ms]
piso step 136.403 [ms]
 contErrors 
time step continuity errors : sum local = 2.59833e-09, global = -5.484e-22, cumulative = -1.00608e-20
ExecutionTime = 9.61 s  ClockTime = 10 s

Time = 0.0014

Courant Number mean: 0.00772784 max: 0.0907903
DILUPBiCGStab:  Solving for Ux, Initial residual = 0.0123791, Final residual = 5.82099e-08, No Iterations 5
DILUPBiCGStab:  Solving for Uy, Initial residual = 0.0169328, Final residual = 3.30148e-08, No Iterations 5
DILUPBiCGStab:  Solving for Uz, Initial residual = 0.0324769, Final residual = 7.4915e-08, No Iterations 5
linear solve U 110.955 [ms]
piso setup 13.223 [ms]
 correctNonOrthogonal 
 setRef 
 startSolve 
[OGL LOG][Proc: 0]global_index_init: 0.037 [ms]
[OGL LOG][DevicePersistentBase.H:106] reading p_local_cols from registry
[OGL LOG][DevicePersistentBase.H:106] reading p_local_rows from registry
[OGL LOG][DevicePersistentBase.H:106] reading p_local_coeffs from registry
[OGL LOG][Proc: 0]call_update: 0 [ms]
[OGL LOG][DevicePersistentBase.H:106] reading p_ldu_csr_map from registry
[OGL LOG][DevicePersistentBase.H:106] reading p_non_local_cols from registry
[OGL LOG][DevicePersistentBase.H:106] reading p_non_local_rows from registry
[OGL LOG][DevicePersistentBase.H:106] reading p_non_local_coeffs from registry
[OGL LOG][Proc: 0]call_update: 0 [ms]
[OGL LOG][Proc: 0]update_local_matrix_data: 4.927 [ms]
[OGL LOG][Proc: 0]update_non_local_matrix_data: 0.18 [ms]
[OGL LOG][DevicePersistentBase.H:106] reading device_partition from registry
[OGL LOG][DevicePersistentBase.H:106] reading p_matrix from registry
[OGL LOG][Proc: 0]call_update: 11.231 [ms]
[OGL LOG][DevicePersistentBase.H:106] reading p_rhs from registry
[OGL LOG][Proc: 0]call_update: 0.662 [ms]
[OGL LOG][DevicePersistentBase.H:106] reading p_solution from registry
[OGL LOG][Proc: 0]init_precond: 0.053 [ms]
[OGL LOG][StoppingCriterion.H:588] Creating stopping criterion with minIter 162 frequency 10
[OGL LOG][Proc: 0]generate_solver: 0.005 [ms]
[OGL LOG][Proc: 0]solve: 129.147 [ms]
[OGL LOG][Proc: 0]copy_x_back: 0.327 [ms]
[OGL LOG][lduLduBase.H:297] 
Statistics:
	Time per iteration: 459 [mu s]
	Time per residual norm calculation: 141.000000 [mu s]
	Time per iteration and DOF: 0.459000 [ns]
	Retrieve results bandwith 3.058000 [GByte/s]
nonehipGKOCG:  Solving for p, Initial residual = 0.00723324, Final residual = 7.09613e-05, No Iterations 281
linear solve p 147.403 [ms]
piso step 152.541 [ms]
 contErrors 
time step continuity errors : sum local = 1.93346e-09, global = -1.15609e-21, cumulative = -1.12169e-20
piso setup 15.492 [ms]
 correctNonOrthogonal 
 setRef 
 startSolve 
[OGL LOG][Proc: 0]global_index_init: 0.027 [ms]
[OGL LOG][DevicePersistentBase.H:106] reading p_local_cols from registry
[OGL LOG][DevicePersistentBase.H:106] reading p_local_rows from registry
[OGL LOG][DevicePersistentBase.H:106] reading p_local_coeffs from registry
[OGL LOG][Proc: 0]call_update: 0 [ms]
[OGL LOG][DevicePersistentBase.H:106] reading p_ldu_csr_map from registry
[OGL LOG][DevicePersistentBase.H:106] reading p_non_local_cols from registry
[OGL LOG][DevicePersistentBase.H:106] reading p_non_local_rows from registry
[OGL LOG][DevicePersistentBase.H:106] reading p_non_local_coeffs from registry
[OGL LOG][Proc: 0]call_update: 0 [ms]
[OGL LOG][Proc: 0]update_local_matrix_data: 5.074 [ms]
[OGL LOG][Proc: 0]update_non_local_matrix_data: 0.178 [ms]
[OGL LOG][DevicePersistentBase.H:106] reading device_partition from registry
[OGL LOG][DevicePersistentBase.H:106] reading p_matrix from registry
[OGL LOG][Proc: 0]call_update: 12.313 [ms]
[OGL LOG][DevicePersistentBase.H:106] reading p_rhs from registry
[OGL LOG][Proc: 0]call_update: 7.41 [ms]
[OGL LOG][DevicePersistentBase.H:106] reading p_solution from registry
[OGL LOG][Proc: 0]init_precond: 0.052 [ms]
[OGL LOG][StoppingCriterion.H:588] Creating stopping criterion with minIter 168 frequency 10
[OGL LOG][Proc: 0]generate_solver: 0.005 [ms]
[OGL LOG][Proc: 0]solve: 121.655 [ms]
[OGL LOG][Proc: 0]copy_x_back: 0.331 [ms]
[OGL LOG][lduLduBase.H:297] 
Statistics:
	Time per iteration: 448 [mu s]
	Time per residual norm calculation: 129.000000 [mu s]
	Time per iteration and DOF: 0.448000 [ns]
	Retrieve results bandwith 3.021000 [GByte/s]
nonehipGKOCG:  Solving for p, Initial residual = 0.00590241, Final residual = 8.80288e-05, No Iterations 271
linear solve p 148.324 [ms]
piso step 153.684 [ms]
 contErrors 
time step continuity errors : sum local = 2.3285e-09, global = -9.72351e-23, cumulative = -1.13142e-20
ExecutionTime = 10.08 s  ClockTime = 11 s

Time = 0.0015

Courant Number mean: 0.00795862 max: 0.0911006
DILUPBiCGStab:  Solving for Ux, Initial residual = 0.0114467, Final residual = 5.27556e-08, No Iterations 5
DILUPBiCGStab:  Solving for Uy, Initial residual = 0.0156262, Final residual = 3.02517e-08, No Iterations 5
DILUPBiCGStab:  Solving for Uz, Initial residual = 0.0301549, Final residual = 6.59688e-08, No Iterations 5
linear solve U 107.545 [ms]
piso setup 15.507 [ms]
 correctNonOrthogonal 
 setRef 
 startSolve 
[OGL LOG][Proc: 0]global_index_init: 0.064 [ms]
[OGL LOG][DevicePersistentBase.H:106] reading p_local_cols from registry
[OGL LOG][DevicePersistentBase.H:106] reading p_local_rows from registry
[OGL LOG][DevicePersistentBase.H:106] reading p_local_coeffs from registry
[OGL LOG][Proc: 0]call_update: 0 [ms]
[OGL LOG][DevicePersistentBase.H:106] reading p_ldu_csr_map from registry
[OGL LOG][DevicePersistentBase.H:106] reading p_non_local_cols from registry
[OGL LOG][DevicePersistentBase.H:106] reading p_non_local_rows from registry
[OGL LOG][DevicePersistentBase.H:106] reading p_non_local_coeffs from registry
[OGL LOG][Proc: 0]call_update: 0 [ms]
[OGL LOG][Proc: 0]update_local_matrix_data: 4.922 [ms]
[OGL LOG][Proc: 0]update_non_local_matrix_data: 1.514 [ms]
[OGL LOG][DevicePersistentBase.H:106] reading device_partition from registry
[OGL LOG][DevicePersistentBase.H:106] reading p_matrix from registry
[OGL LOG][Proc: 0]call_update: 9.709 [ms]
[OGL LOG][DevicePersistentBase.H:106] reading p_rhs from registry
[OGL LOG][Proc: 0]call_update: 0.998 [ms]
[OGL LOG][DevicePersistentBase.H:106] reading p_solution from registry
[OGL LOG][Proc: 0]init_precond: 0.055 [ms]
[OGL LOG][StoppingCriterion.H:588] Creating stopping criterion with minIter 162 frequency 10
[OGL LOG][Proc: 0]generate_solver: 0.007 [ms]
[OGL LOG][Proc: 0]solve: 116.336 [ms]
[OGL LOG][Proc: 0]copy_x_back: 0.34 [ms]
[OGL LOG][lduLduBase.H:297] 
Statistics:
	Time per iteration: 429 [mu s]
	Time per residual norm calculation: 124.000000 [mu s]
	Time per iteration and DOF: 0.429000 [ns]
	Retrieve results bandwith 2.941000 [GByte/s]
nonehipGKOCG:  Solving for p, Initial residual = 0.00650425, Final residual = 9.97232e-05, No Iterations 271
linear solve p 134.737 [ms]
piso step 139.635 [ms]
 contErrors 
time step continuity errors : sum local = 2.64992e-09, global = -1.35022e-21, cumulative = -1.26644e-20
piso setup 13.052 [ms]
 correctNonOrthogonal 
 setRef 
 startSolve 
[OGL LOG][Proc: 0]global_index_init: 0.009 [ms]
[OGL LOG][DevicePersistentBase.H:106] reading p_local_cols from registry
[OGL LOG][DevicePersistentBase.H:106] reading p_local_rows from registry
[OGL LOG][DevicePersistentBase.H:106] reading p_local_coeffs from registry
[OGL LOG][Proc: 0]call_update: 0 [ms]
[OGL LOG][DevicePersistentBase.H:106] reading p_ldu_csr_map from registry
[OGL LOG][DevicePersistentBase.H:106] reading p_non_local_cols from registry
[OGL LOG][DevicePersistentBase.H:106] reading p_non_local_rows from registry
[OGL LOG][DevicePersistentBase.H:106] reading p_non_local_coeffs from registry
[OGL LOG][Proc: 0]call_update: 0 [ms]
[OGL LOG][Proc: 0]update_local_matrix_data: 5.038 [ms]
[OGL LOG][Proc: 0]update_non_local_matrix_data: 0.165 [ms]
[OGL LOG][DevicePersistentBase.H:106] reading device_partition from registry
[OGL LOG][DevicePersistentBase.H:106] reading p_matrix from registry
[OGL LOG][Proc: 0]call_update: 13.125 [ms]
[OGL LOG][DevicePersistentBase.H:106] reading p_rhs from registry
[OGL LOG][Proc: 0]call_update: 0.624 [ms]
[OGL LOG][DevicePersistentBase.H:106] reading p_solution from registry
[OGL LOG][Proc: 0]init_precond: 0.055 [ms]
[OGL LOG][StoppingCriterion.H:588] Creating stopping criterion with minIter 162 frequency 10
[OGL LOG][Proc: 0]generate_solver: 0.006 [ms]
[OGL LOG][Proc: 0]solve: 117.87 [ms]
[OGL LOG][Proc: 0]copy_x_back: 0.326 [ms]
[OGL LOG][lduLduBase.H:297] 
Statistics:
	Time per iteration: 434 [mu s]
	Time per residual norm calculation: 131.000000 [mu s]
	Time per iteration and DOF: 0.434000 [ns]
	Retrieve results bandwith 3.067000 [GByte/s]
nonehipGKOCG:  Solving for p, Initial residual = 0.00535871, Final residual = 7.72057e-05, No Iterations 271
linear solve p 138.109 [ms]
piso step 142.871 [ms]
 contErrors 
time step continuity errors : sum local = 2.07437e-09, global = -1.79302e-21, cumulative = -1.44574e-20
ExecutionTime = 10.53 s  ClockTime = 11 s

Time = 0.0016

Courant Number mean: 0.00817649 max: 0.091377
DILUPBiCGStab:  Solving for Ux, Initial residual = 0.0106404, Final residual = 4.81152e-08, No Iterations 5
DILUPBiCGStab:  Solving for Uy, Initial residual = 0.0144993, Final residual = 2.7903e-08, No Iterations 5
DILUPBiCGStab:  Solving for Uz, Initial residual = 0.0281313, Final residual = 5.91524e-08, No Iterations 5
linear solve U 107.096 [ms]
piso setup 14.554 [ms]
 correctNonOrthogonal 
 setRef 
 startSolve 
[OGL LOG][Proc: 0]global_index_init: 0.014 [ms]
[OGL LOG][DevicePersistentBase.H:106] reading p_local_cols from registry
[OGL LOG][DevicePersistentBase.H:106] reading p_local_rows from registry
[OGL LOG][DevicePersistentBase.H:106] reading p_local_coeffs from registry
[OGL LOG][Proc: 0]call_update: 0 [ms]
[OGL LOG][DevicePersistentBase.H:106] reading p_ldu_csr_map from registry
[OGL LOG][DevicePersistentBase.H:106] reading p_non_local_cols from registry
[OGL LOG][DevicePersistentBase.H:106] reading p_non_local_rows from registry
[OGL LOG][DevicePersistentBase.H:106] reading p_non_local_coeffs from registry
[OGL LOG][Proc: 0]call_update: 0 [ms]
[OGL LOG][Proc: 0]update_local_matrix_data: 5.763 [ms]
[OGL LOG][Proc: 0]update_non_local_matrix_data: 0.268 [ms]
[OGL LOG][DevicePersistentBase.H:106] reading device_partition from registry
[OGL LOG][DevicePersistentBase.H:106] reading p_matrix from registry
[OGL LOG][Proc: 0]call_update: 9.436 [ms]
[OGL LOG][DevicePersistentBase.H:106] reading p_rhs from registry
[OGL LOG][Proc: 0]call_update: 0.412 [ms]
[OGL LOG][DevicePersistentBase.H:106] reading p_solution from registry
[OGL LOG][Proc: 0]init_precond: 0.058 [ms]
[OGL LOG][StoppingCriterion.H:588] Creating stopping criterion with minIter 162 frequency 10
[OGL LOG][Proc: 0]generate_solver: 0.005 [ms]
[OGL LOG][Proc: 0]solve: 116.119 [ms]
[OGL LOG][Proc: 0]copy_x_back: 0.447 [ms]
[OGL LOG][lduLduBase.H:297] 
Statistics:
	Time per iteration: 428 [mu s]
	Time per residual norm calculation: 133.000000 [mu s]
	Time per iteration and DOF: 0.428000 [ns]
	Retrieve results bandwith 2.237000 [GByte/s]
nonehipGKOCG:  Solving for p, Initial residual = 0.00601371, Final residual = 9.82939e-05, No Iterations 271
linear solve p 133.393 [ms]
piso step 139.21 [ms]
 contErrors 
time step continuity errors : sum local = 2.62476e-09, global = 3.32051e-22, cumulative = -1.41253e-20
piso setup 11.717 [ms]
 correctNonOrthogonal 
 setRef 
 startSolve 
[OGL LOG][Proc: 0]global_index_init: 0.018 [ms]
[OGL LOG][DevicePersistentBase.H:106] reading p_local_cols from registry
[OGL LOG][DevicePersistentBase.H:106] reading p_local_rows from registry
[OGL LOG][DevicePersistentBase.H:106] reading p_local_coeffs from registry
[OGL LOG][Proc: 0]call_update: 0 [ms]
[OGL LOG][DevicePersistentBase.H:106] reading p_ldu_csr_map from registry
[OGL LOG][DevicePersistentBase.H:106] reading p_non_local_cols from registry
[OGL LOG][DevicePersistentBase.H:106] reading p_non_local_rows from registry
[OGL LOG][DevicePersistentBase.H:106] reading p_non_local_coeffs from registry
[OGL LOG][Proc: 0]call_update: 0 [ms]
[OGL LOG][Proc: 0]update_local_matrix_data: 5.091 [ms]
[OGL LOG][Proc: 0]update_non_local_matrix_data: 0.166 [ms]
[OGL LOG][DevicePersistentBase.H:106] reading device_partition from registry
[OGL LOG][DevicePersistentBase.H:106] reading p_matrix from registry
[OGL LOG][Proc: 0]call_update: 8.416 [ms]
[OGL LOG][DevicePersistentBase.H:106] reading p_rhs from registry
[OGL LOG][Proc: 0]call_update: 0.707 [ms]
[OGL LOG][DevicePersistentBase.H:106] reading p_solution from registry
[OGL LOG][Proc: 0]init_precond: 0.253 [ms]
[OGL LOG][StoppingCriterion.H:588] Creating stopping criterion with minIter 162 frequency 10
[OGL LOG][Proc: 0]generate_solver: 0.003 [ms]
[OGL LOG][Proc: 0]solve: 116.671 [ms]
[OGL LOG][Proc: 0]copy_x_back: 0.335 [ms]
[OGL LOG][lduLduBase.H:297] 
Statistics:
	Time per iteration: 430 [mu s]
	Time per residual norm calculation: 129.000000 [mu s]
	Time per iteration and DOF: 0.430000 [ns]
	Retrieve results bandwith 2.985000 [GByte/s]
nonehipGKOCG:  Solving for p, Initial residual = 0.00496645, Final residual = 6.83139e-05, No Iterations 271
linear solve p 132.564 [ms]
piso step 137.58 [ms]
 contErrors 
time step continuity errors : sum local = 1.86592e-09, global = -1.10441e-21, cumulative = -1.52298e-20
ExecutionTime = 10.95 s  ClockTime = 11 s

Time = 0.0017

Courant Number mean: 0.00838249 max: 0.0916252
DILUPBiCGStab:  Solving for Ux, Initial residual = 0.00993233, Final residual = 4.41299e-08, No Iterations 5
DILUPBiCGStab:  Solving for Uy, Initial residual = 0.0135176, Final residual = 2.58981e-08, No Iterations 5
DILUPBiCGStab:  Solving for Uz, Initial residual = 0.026349, Final residual = 5.38172e-08, No Iterations 5
linear solve U 101.129 [ms]
piso setup 11.671 [ms]
 correctNonOrthogonal 
 setRef 
 startSolve 
[OGL LOG][Proc: 0]global_index_init: 0.015 [ms]
[OGL LOG][DevicePersistentBase.H:106] reading p_local_cols from registry
[OGL LOG][DevicePersistentBase.H:106] reading p_local_rows from registry
[OGL LOG][DevicePersistentBase.H:106] reading p_local_coeffs from registry
[OGL LOG][Proc: 0]call_update: 0 [ms]
[OGL LOG][DevicePersistentBase.H:106] reading p_ldu_csr_map from registry
[OGL LOG][DevicePersistentBase.H:106] reading p_non_local_cols from registry
[OGL LOG][DevicePersistentBase.H:106] reading p_non_local_rows from registry
[OGL LOG][DevicePersistentBase.H:106] reading p_non_local_coeffs from registry
[OGL LOG][Proc: 0]call_update: 0 [ms]
[OGL LOG][Proc: 0]update_local_matrix_data: 5.109 [ms]
[OGL LOG][Proc: 0]update_non_local_matrix_data: 0.184 [ms]
[OGL LOG][DevicePersistentBase.H:106] reading device_partition from registry
[OGL LOG][DevicePersistentBase.H:106] reading p_matrix from registry
[OGL LOG][Proc: 0]call_update: 8.555 [ms]
[OGL LOG][DevicePersistentBase.H:106] reading p_rhs from registry
[OGL LOG][Proc: 0]call_update: 0.51 [ms]
[OGL LOG][DevicePersistentBase.H:106] reading p_solution from registry
[OGL LOG][Proc: 0]init_precond: 0.053 [ms]
[OGL LOG][StoppingCriterion.H:588] Creating stopping criterion with minIter 162 frequency 10
[OGL LOG][Proc: 0]generate_solver: 0.004 [ms]
[OGL LOG][Proc: 0]solve: 116.145 [ms]
[OGL LOG][Proc: 0]copy_x_back: 0.334 [ms]
[OGL LOG][lduLduBase.H:297] 
Statistics:
	Time per iteration: 428 [mu s]
	Time per residual norm calculation: 127.000000 [mu s]
	Time per iteration and DOF: 0.428000 [ns]
	Retrieve results bandwith 2.994000 [GByte/s]
nonehipGKOCG:  Solving for p, Initial residual = 0.00548043, Final residual = 9.34474e-05, No Iterations 271
linear solve p 131.662 [ms]
piso step 137.215 [ms]
 contErrors 
time step continuity errors : sum local = 2.51353e-09, global = -9.26204e-22, cumulative = -1.6156e-20
piso setup 11.518 [ms]
 correctNonOrthogonal 
 setRef 
 startSolve 
[OGL LOG][Proc: 0]global_index_init: 0.012 [ms]
[OGL LOG][DevicePersistentBase.H:106] reading p_local_cols from registry
[OGL LOG][DevicePersistentBase.H:106] reading p_local_rows from registry
[OGL LOG][DevicePersistentBase.H:106] reading p_local_coeffs from registry
[OGL LOG][Proc: 0]call_update: 0 [ms]
[OGL LOG][DevicePersistentBase.H:106] reading p_ldu_csr_map from registry
[OGL LOG][DevicePersistentBase.H:106] reading p_non_local_cols from registry
[OGL LOG][DevicePersistentBase.H:106] reading p_non_local_rows from registry
[OGL LOG][DevicePersistentBase.H:106] reading p_non_local_coeffs from registry
[OGL LOG][Proc: 0]call_update: 0 [ms]
[OGL LOG][Proc: 0]update_local_matrix_data: 5.03 [ms]
[OGL LOG][Proc: 0]update_non_local_matrix_data: 0.184 [ms]
[OGL LOG][DevicePersistentBase.H:106] reading device_partition from registry
[OGL LOG][DevicePersistentBase.H:106] reading p_matrix from registry
[OGL LOG][Proc: 0]call_update: 8.953 [ms]
[OGL LOG][DevicePersistentBase.H:106] reading p_rhs from registry
[OGL LOG][Proc: 0]call_update: 0.998 [ms]
[OGL LOG][DevicePersistentBase.H:106] reading p_solution from registry
[OGL LOG][Proc: 0]init_precond: 0.054 [ms]
[OGL LOG][StoppingCriterion.H:588] Creating stopping criterion with minIter 162 frequency 10
[OGL LOG][Proc: 0]generate_solver: 0.005 [ms]
[OGL LOG][Proc: 0]solve: 114.741 [ms]
[OGL LOG][Proc: 0]copy_x_back: 0.332 [ms]
[OGL LOG][lduLduBase.H:297] 
Statistics:
	Time per iteration: 423 [mu s]
	Time per residual norm calculation: 129.000000 [mu s]
	Time per iteration and DOF: 0.423000 [ns]
	Retrieve results bandwith 3.012000 [GByte/s]
nonehipGKOCG:  Solving for p, Initial residual = 0.00453574, Final residual = 6.30807e-05, No Iterations 271
linear solve p 131.094 [ms]
piso step 135.967 [ms]
 contErrors 
time step continuity errors : sum local = 1.74581e-09, global = -6.46669e-22, cumulative = -1.68026e-20
ExecutionTime = 11.37 s  ClockTime = 12 s

Time = 0.0018

Courant Number mean: 0.00857956 max: 0.0918497
DILUPBiCGStab:  Solving for Ux, Initial residual = 0.00931086, Final residual = 4.06858e-08, No Iterations 5
DILUPBiCGStab:  Solving for Uy, Initial residual = 0.0126547, Final residual = 2.41713e-08, No Iterations 5
DILUPBiCGStab:  Solving for Uz, Initial residual = 0.0247695, Final residual = 4.9555e-08, No Iterations 5
linear solve U 101.368 [ms]
piso setup 11.607 [ms]
 correctNonOrthogonal 
 setRef 
 startSolve 
[OGL LOG][Proc: 0]global_index_init: 0.008 [ms]
[OGL LOG][DevicePersistentBase.H:106] reading p_local_cols from registry
[OGL LOG][DevicePersistentBase.H:106] reading p_local_rows from registry
[OGL LOG][DevicePersistentBase.H:106] reading p_local_coeffs from registry
[OGL LOG][Proc: 0]call_update: 0 [ms]
[OGL LOG][DevicePersistentBase.H:106] reading p_ldu_csr_map from registry
[OGL LOG][DevicePersistentBase.H:106] reading p_non_local_cols from registry
[OGL LOG][DevicePersistentBase.H:106] reading p_non_local_rows from registry
[OGL LOG][DevicePersistentBase.H:106] reading p_non_local_coeffs from registry
[OGL LOG][Proc: 0]call_update: 0 [ms]
[OGL LOG][Proc: 0]update_local_matrix_data: 4.933 [ms]
[OGL LOG][Proc: 0]update_non_local_matrix_data: 0.176 [ms]
[OGL LOG][DevicePersistentBase.H:106] reading device_partition from registry
[OGL LOG][DevicePersistentBase.H:106] reading p_matrix from registry
[OGL LOG][Proc: 0]call_update: 8.535 [ms]
[OGL LOG][DevicePersistentBase.H:106] reading p_rhs from registry
[OGL LOG][Proc: 0]call_update: 0.491 [ms]
[OGL LOG][DevicePersistentBase.H:106] reading p_solution from registry
[OGL LOG][Proc: 0]init_precond: 0.066 [ms]
[OGL LOG][StoppingCriterion.H:588] Creating stopping criterion with minIter 162 frequency 10
[OGL LOG][Proc: 0]generate_solver: 0.005 [ms]
[OGL LOG][Proc: 0]solve: 114.765 [ms]
[OGL LOG][Proc: 0]copy_x_back: 0.341 [ms]
[OGL LOG][lduLduBase.H:297] 
Statistics:
	Time per iteration: 423 [mu s]
	Time per residual norm calculation: 128.000000 [mu s]
	Time per iteration and DOF: 0.423000 [ns]
	Retrieve results bandwith 2.932000 [GByte/s]
nonehipGKOCG:  Solving for p, Initial residual = 0.00504952, Final residual = 8.69227e-05, No Iterations 271
linear solve p 130.096 [ms]
piso step 134.959 [ms]
 contErrors 
time step continuity errors : sum local = 2.35989e-09, global = -2.14827e-21, cumulative = -1.89509e-20
piso setup 11.654 [ms]
 correctNonOrthogonal 
 setRef 
 startSolve 
[OGL LOG][Proc: 0]global_index_init: 0.019 [ms]
[OGL LOG][DevicePersistentBase.H:106] reading p_local_cols from registry
[OGL LOG][DevicePersistentBase.H:106] reading p_local_rows from registry
[OGL LOG][DevicePersistentBase.H:106] reading p_local_coeffs from registry
[OGL LOG][Proc: 0]call_update: 0 [ms]
[OGL LOG][DevicePersistentBase.H:106] reading p_ldu_csr_map from registry
[OGL LOG][DevicePersistentBase.H:106] reading p_non_local_cols from registry
[OGL LOG][DevicePersistentBase.H:106] reading p_non_local_rows from registry
[OGL LOG][DevicePersistentBase.H:106] reading p_non_local_coeffs from registry
[OGL LOG][Proc: 0]call_update: 0 [ms]
[OGL LOG][Proc: 0]update_local_matrix_data: 5.024 [ms]
[OGL LOG][Proc: 0]update_non_local_matrix_data: 0.165 [ms]
[OGL LOG][DevicePersistentBase.H:106] reading device_partition from registry
[OGL LOG][DevicePersistentBase.H:106] reading p_matrix from registry
[OGL LOG][Proc: 0]call_update: 8.369 [ms]
[OGL LOG][DevicePersistentBase.H:106] reading p_rhs from registry
[OGL LOG][Proc: 0]call_update: 0.845 [ms]
[OGL LOG][DevicePersistentBase.H:106] reading p_solution from registry
[OGL LOG][Proc: 0]init_precond: 0.056 [ms]
[OGL LOG][StoppingCriterion.H:588] Creating stopping criterion with minIter 162 frequency 10
[OGL LOG][Proc: 0]generate_solver: 0.009 [ms]
[...]
nonehipGKOCG:  Solving for p, Initial residual = 0.00968557, Final residual = 9.34483e-05, No Iterations 871
linear solve p 3195.44 [ms]
piso step 3501.6 [ms]
 contErrors 
time step continuity errors : sum local = 2.92298e-10, global = -3.25659e-23, cumulative = -3.27135e-21
piso setup 626.278 [ms]
 correctNonOrthogonal 
 setRef 
 startSolve 
[OGL LOG][Proc: 0]global_index_init: 4.386 [ms]
[OGL LOG][DevicePersistentBase.H:106] reading p_local_cols from registry
[OGL LOG][DevicePersistentBase.H:106] reading p_local_rows from registry
[OGL LOG][DevicePersistentBase.H:106] reading p_local_coeffs from registry
[OGL LOG][Proc: 0]call_update: 0 [ms]
[OGL LOG][DevicePersistentBase.H:106] reading p_ldu_csr_map from registry
[OGL LOG][DevicePersistentBase.H:106] reading p_non_local_cols from registry
[OGL LOG][DevicePersistentBase.H:106] reading p_non_local_rows from registry
[OGL LOG][DevicePersistentBase.H:106] reading p_non_local_coeffs from registry
[OGL LOG][Proc: 0]call_update: 0 [ms]
[OGL LOG][Proc: 0]update_local_matrix_data: 264.127 [ms]
[OGL LOG][Proc: 0]update_non_local_matrix_data: 83.931 [ms]
[OGL LOG][DevicePersistentBase.H:106] reading device_partition from registry
[OGL LOG][DevicePersistentBase.H:106] reading p_matrix from registry
[OGL LOG][Proc: 0]call_update: 468.663 [ms]
[OGL LOG][DevicePersistentBase.H:106] reading p_rhs from registry
[OGL LOG][Proc: 0]call_update: 81.871 [ms]
[OGL LOG][DevicePersistentBase.H:106] reading p_solution from registry
[OGL LOG][Proc: 0]init_precond: 0.065 [ms]
[OGL LOG][StoppingCriterion.H:588] Creating stopping criterion with minIter 522 frequency 10
[OGL LOG][Proc: 0]generate_solver: 0.007 [ms]
[OGL LOG][Proc: 0]solve: 2214.29 [ms]
[OGL LOG][Proc: 0]copy_x_back: 9.306 [ms]
[OGL LOG][lduLduBase.H:297] 
Statistics:
	Time per iteration: 2542 [mu s]
	Time per residual norm calculation: 298.000000 [mu s]
	Time per iteration and DOF: 0.094148 [ns]
	Retrieve results bandwith 2.901000 [GByte/s]
nonehipGKOCG:  Solving for p, Initial residual = 0.00906824, Final residual = 8.2386e-05, No Iterations 871
linear solve p 3141.45 [ms]
piso step 3398.52 [ms]
 contErrors 
time step continuity errors : sum local = 2.63747e-10, global = -2.30336e-22, cumulative = -3.50169e-21
ExecutionTime = 275.33 s  ClockTime = 277 s

Time = 0.000566667

Courant Number mean: 0.00547225 max: 0.0954674
DILUPBiCGStab:  Solving for Ux, Initial residual = 0.00954756, Final residual = 2.49827e-06, No Iterations 5
DILUPBiCGStab:  Solving for Uy, Initial residual = 0.0144179, Final residual = 2.36978e-06, No Iterations 5
DILUPBiCGStab:  Solving for Uz, Initial residual = 0.0274173, Final residual = 3.64476e-06, No Iterations 5
linear solve U 3979 [ms]
piso setup 743.74 [ms]
 correctNonOrthogonal 
 setRef 
 startSolve 
[OGL LOG][Proc: 0]global_index_init: 4.368 [ms]
[OGL LOG][DevicePersistentBase.H:106] reading p_local_cols from registry
[OGL LOG][DevicePersistentBase.H:106] reading p_local_rows from registry
[OGL LOG][DevicePersistentBase.H:106] reading p_local_coeffs from registry
[OGL LOG][Proc: 0]call_update: 0 [ms]
[OGL LOG][DevicePersistentBase.H:106] reading p_ldu_csr_map from registry
[OGL LOG][DevicePersistentBase.H:106] reading p_non_local_cols from registry
[OGL LOG][DevicePersistentBase.H:106] reading p_non_local_rows from registry
[OGL LOG][DevicePersistentBase.H:106] reading p_non_local_coeffs from registry
[OGL LOG][Proc: 0]call_update: 0 [ms]
[OGL LOG][Proc: 0]update_local_matrix_data: 303.321 [ms]
[OGL LOG][Proc: 0]update_non_local_matrix_data: 57.855 [ms]
[OGL LOG][DevicePersistentBase.H:106] reading device_partition from registry
[OGL LOG][DevicePersistentBase.H:106] reading p_matrix from registry
[OGL LOG][Proc: 0]call_update: 470.478 [ms]
[OGL LOG][DevicePersistentBase.H:106] reading p_rhs from registry
[OGL LOG][Proc: 0]call_update: 79.201 [ms]
[OGL LOG][DevicePersistentBase.H:106] reading p_solution from registry
[OGL LOG][Proc: 0]init_precond: 0.051 [ms]
[OGL LOG][StoppingCriterion.H:588] Creating stopping criterion with minIter 522 frequency 10
[OGL LOG][Proc: 0]generate_solver: 0.003 [ms]
[OGL LOG][Proc: 0]solve: 2295.11 [ms]
[OGL LOG][Proc: 0]copy_x_back: 16.646 [ms]
[OGL LOG][lduLduBase.H:297] 
Statistics:
	Time per iteration: 2575 [mu s]
	Time per residual norm calculation: 261.000000 [mu s]
	Time per iteration and DOF: 0.095370 [ns]
	Retrieve results bandwith 1.622000 [GByte/s]
nonehipGKOCG:  Solving for p, Initial residual = 0.00904237, Final residual = 9.7467e-05, No Iterations 891
linear solve p 3245.7 [ms]
piso step 3555.28 [ms]
 contErrors 
time step continuity errors : sum local = 3.1556e-10, global = -2.37201e-22, cumulative = -3.73889e-21
piso setup 635.938 [ms]
 correctNonOrthogonal 
 setRef 
 startSolve 
[OGL LOG][Proc: 0]global_index_init: 4.194 [ms]
[OGL LOG][DevicePersistentBase.H:106] reading p_local_cols from registry
[OGL LOG][DevicePersistentBase.H:106] reading p_local_rows from registry
[OGL LOG][DevicePersistentBase.H:106] reading p_local_coeffs from registry
[OGL LOG][Proc: 0]call_update: 0 [ms]
[OGL LOG][DevicePersistentBase.H:106] reading p_ldu_csr_map from registry
[OGL LOG][DevicePersistentBase.H:106] reading p_non_local_cols from registry
[OGL LOG][DevicePersistentBase.H:106] reading p_non_local_rows from registry
[OGL LOG][DevicePersistentBase.H:106] reading p_non_local_coeffs from registry
[OGL LOG][Proc: 0]call_update: 0 [ms]
[OGL LOG][Proc: 0]update_local_matrix_data: 260.572 [ms]
[OGL LOG][Proc: 0]update_non_local_matrix_data: 95.561 [ms]
[OGL LOG][DevicePersistentBase.H:106] reading device_partition from registry
[OGL LOG][DevicePersistentBase.H:106] reading p_matrix from registry
[OGL LOG][Proc: 0]call_update: 416.113 [ms]
[OGL LOG][DevicePersistentBase.H:106] reading p_rhs from registry
[OGL LOG][Proc: 0]call_update: 79.898 [ms]
[OGL LOG][DevicePersistentBase.H:106] reading p_solution from registry
[OGL LOG][Proc: 0]init_precond: 0.061 [ms]
[OGL LOG][StoppingCriterion.H:588] Creating stopping criterion with minIter 534 frequency 10
[OGL LOG][Proc: 0]generate_solver: 0.006 [ms]
[OGL LOG][Proc: 0]solve: 2239.57 [ms]
[OGL LOG][Proc: 0]copy_x_back: 9.238 [ms]
[OGL LOG][lduLduBase.H:297] 
Statistics:
	Time per iteration: 2571 [mu s]
	Time per residual norm calculation: 261.000000 [mu s]
	Time per iteration and DOF: 0.095222 [ns]
	Retrieve results bandwith 2.922000 [GByte/s]
nonehipGKOCG:  Solving for p, Initial residual = 0.00845406, Final residual = 9.70552e-05, No Iterations 871
linear solve p 3123.82 [ms]
piso step 3379.81 [ms]
 contErrors 
time step continuity errors : sum local = 3.11672e-10, global = -1.41064e-22, cumulative = -3.87995e-21
ExecutionTime = 288.99 s  ClockTime = 291 s

Time = 0.0006

Courant Number mean: 0.0056146 max: 0.0955973
DILUPBiCGStab:  Solving for Ux, Initial residual = 0.00900927, Final residual = 2.31707e-06, No Iterations 5
DILUPBiCGStab:  Solving for Uy, Initial residual = 0.0135289, Final residual = 2.19704e-06, No Iterations 5
DILUPBiCGStab:  Solving for Uz, Initial residual = 0.0260128, Final residual = 3.15495e-06, No Iterations 5
linear solve U 3995.11 [ms]
piso setup 753.359 [ms]
 correctNonOrthogonal 
 setRef 
 startSolve 
[OGL LOG][Proc: 0]global_index_init: 4.21 [ms]
[OGL LOG][DevicePersistentBase.H:106] reading p_local_cols from registry
[OGL LOG][DevicePersistentBase.H:106] reading p_local_rows from registry
[OGL LOG][DevicePersistentBase.H:106] reading p_local_coeffs from registry
[OGL LOG][Proc: 0]call_update: 0 [ms]
[OGL LOG][DevicePersistentBase.H:106] reading p_ldu_csr_map from registry
[OGL LOG][DevicePersistentBase.H:106] reading p_non_local_cols from registry
[OGL LOG][DevicePersistentBase.H:106] reading p_non_local_rows from registry
[OGL LOG][DevicePersistentBase.H:106] reading p_non_local_coeffs from registry
[OGL LOG][Proc: 0]call_update: 0 [ms]
[OGL LOG][Proc: 0]update_local_matrix_data: 274.485 [ms]
[OGL LOG][Proc: 0]update_non_local_matrix_data: 98.835 [ms]
[OGL LOG][DevicePersistentBase.H:106] reading device_partition from registry
[OGL LOG][DevicePersistentBase.H:106] reading p_matrix from registry
[OGL LOG][Proc: 0]call_update: 418.109 [ms]
[OGL LOG][DevicePersistentBase.H:106] reading p_rhs from registry
[OGL LOG][Proc: 0]call_update: 85.939 [ms]
[OGL LOG][DevicePersistentBase.H:106] reading p_solution from registry
[OGL LOG][Proc: 0]init_precond: 0.053 [ms]
[OGL LOG][StoppingCriterion.H:588] Creating stopping criterion with minIter 522 frequency 10
[OGL LOG][Proc: 0]generate_solver: 0.004 [ms]
[OGL LOG][Proc: 0]solve: 2406.08 [ms]
[OGL LOG][Proc: 0]copy_x_back: 16.6 [ms]
[OGL LOG][lduLduBase.H:297] 
Statistics:
	Time per iteration: 2556 [mu s]
	Time per residual norm calculation: 261.000000 [mu s]
	Time per iteration and DOF: 0.094667 [ns]
	Retrieve results bandwith 1.626000 [GByte/s]
nonehipGKOCG:  Solving for p, Initial residual = 0.00818579, Final residual = 9.86977e-05, No Iterations 941
linear solve p 3325.28 [ms]
piso step 3619.88 [ms]
 contErrors 
time step continuity errors : sum local = 3.09103e-10, global = -2.19025e-22, cumulative = -4.09898e-21
piso setup 609.037 [ms]
 correctNonOrthogonal 
 setRef 
 startSolve 
[OGL LOG][Proc: 0]global_index_init: 4.396 [ms]
[OGL LOG][DevicePersistentBase.H:106] reading p_local_cols from registry
[OGL LOG][DevicePersistentBase.H:106] reading p_local_rows from registry
[OGL LOG][DevicePersistentBase.H:106] reading p_local_coeffs from registry
[OGL LOG][Proc: 0]call_update: 0 [ms]
[OGL LOG][DevicePersistentBase.H:106] reading p_ldu_csr_map from registry
[OGL LOG][DevicePersistentBase.H:106] reading p_non_local_cols from registry
[OGL LOG][DevicePersistentBase.H:106] reading p_non_local_rows from registry
[OGL LOG][DevicePersistentBase.H:106] reading p_non_local_coeffs from registry
[OGL LOG][Proc: 0]call_update: 0 [ms]
[OGL LOG][Proc: 0]update_local_matrix_data: 260.448 [ms]
[OGL LOG][Proc: 0]update_non_local_matrix_data: 97.448 [ms]
[OGL LOG][DevicePersistentBase.H:106] reading device_partition from registry
[OGL LOG][DevicePersistentBase.H:106] reading p_matrix from registry
[OGL LOG][Proc: 0]call_update: 431.124 [ms]
[OGL LOG][DevicePersistentBase.H:106] reading p_rhs from registry
[OGL LOG][Proc: 0]call_update: 80.37 [ms]
[OGL LOG][DevicePersistentBase.H:106] reading p_solution from registry
[OGL LOG][Proc: 0]init_precond: 0.059 [ms]
[OGL LOG][StoppingCriterion.H:588] Creating stopping criterion with minIter 564 frequency 10
[OGL LOG][Proc: 0]generate_solver: 0.006 [ms]
[OGL LOG][Proc: 0]solve: 2231.8 [ms]
[OGL LOG][Proc: 0]copy_x_back: 9.567 [ms]
[OGL LOG][lduLduBase.H:297] 
Statistics:
	Time per iteration: 2533 [mu s]
	Time per residual norm calculation: 299.000000 [mu s]
	Time per iteration and DOF: 0.093815 [ns]
	Retrieve results bandwith 2.822000 [GByte/s]
nonehipGKOCG:  Solving for p, Initial residual = 0.0076766, Final residual = 9.90177e-05, No Iterations 881
linear solve p 3129.58 [ms]
piso step 3388.54 [ms]
 contErrors 
time step continuity errors : sum local = 3.14663e-10, global = -4.1772e-22, cumulative = -4.5167e-21
ExecutionTime = 302.72 s  ClockTime = 305 s

Time = 0.000633333

Courant Number mean: 0.0057515 max: 0.0957157
DILUPBiCGStab:  Solving for Ux, Initial residual = 0.00852583, Final residual = 2.1593e-06, No Iterations 5
DILUPBiCGStab:  Solving for Uy, Initial residual = 0.0127459, Final residual = 2.04533e-06, No Iterations 5
DILUPBiCGStab:  Solving for Uz, Initial residual = 0.0245972, Final residual = 2.91504e-06, No Iterations 5
linear solve U 3984.45 [ms]
piso setup 740.87 [ms]
 correctNonOrthogonal 
 setRef 
 startSolve 
[OGL LOG][Proc: 0]global_index_init: 4.197 [ms]
[OGL LOG][DevicePersistentBase.H:106] reading p_local_cols from registry
[OGL LOG][DevicePersistentBase.H:106] reading p_local_rows from registry
[OGL LOG][DevicePersistentBase.H:106] reading p_local_coeffs from registry
[OGL LOG][Proc: 0]call_update: 0 [ms]
[OGL LOG][DevicePersistentBase.H:106] reading p_ldu_csr_map from registry
[OGL LOG][DevicePersistentBase.H:106] reading p_non_local_cols from registry
[OGL LOG][DevicePersistentBase.H:106] reading p_non_local_rows from registry
[OGL LOG][DevicePersistentBase.H:106] reading p_non_local_coeffs from registry
[OGL LOG][Proc: 0]call_update: 0 [ms]
[OGL LOG][Proc: 0]update_local_matrix_data: 275.001 [ms]
[OGL LOG][Proc: 0]update_non_local_matrix_data: 118.272 [ms]
[OGL LOG][DevicePersistentBase.H:106] reading device_partition from registry
[OGL LOG][DevicePersistentBase.H:106] reading p_matrix from registry
[OGL LOG][Proc: 0]call_update: 420.233 [ms]
[OGL LOG][DevicePersistentBase.H:106] reading p_rhs from registry
[OGL LOG][Proc: 0]call_update: 87.067 [ms]
[OGL LOG][DevicePersistentBase.H:106] reading p_solution from registry
[OGL LOG][Proc: 0]init_precond: 0.058 [ms]
[OGL LOG][StoppingCriterion.H:588] Creating stopping criterion with minIter 528 frequency 10
[OGL LOG][Proc: 0]generate_solver: 0.005 [ms]
[OGL LOG][Proc: 0]solve: 2476.3 [ms]
[OGL LOG][Proc: 0]copy_x_back: 16.691 [ms]
[OGL LOG][lduLduBase.H:297] 
Statistics:
	Time per iteration: 2576 [mu s]
	Time per residual norm calculation: 299.000000 [mu s]
	Time per iteration and DOF: 0.095407 [ns]
	Retrieve results bandwith 1.617000 [GByte/s]
nonehipGKOCG:  Solving for p, Initial residual = 0.00770669, Final residual = 9.74292e-05, No Iterations 961
linear solve p 3416.55 [ms]
piso step 3710.59 [ms]
 contErrors 
time step continuity errors : sum local = 3.1523e-10, global = -1.31622e-22, cumulative = -4.64832e-21
piso setup 635.593 [ms]
 correctNonOrthogonal 
 setRef 
 startSolve 
[OGL LOG][Proc: 0]global_index_init: 4.338 [ms]
[OGL LOG][DevicePersistentBase.H:106] reading p_local_cols from registry
[OGL LOG][DevicePersistentBase.H:106] reading p_local_rows from registry
[OGL LOG][DevicePersistentBase.H:106] reading p_local_coeffs from registry
[OGL LOG][Proc: 0]call_update: 0 [ms]
[OGL LOG][DevicePersistentBase.H:106] reading p_ldu_csr_map from registry
[OGL LOG][DevicePersistentBase.H:106] reading p_non_local_cols from registry
[OGL LOG][DevicePersistentBase.H:106] reading p_non_local_rows from registry
[OGL LOG][DevicePersistentBase.H:106] reading p_non_local_coeffs from registry
[OGL LOG][Proc: 0]call_update: 0 [ms]
[OGL LOG][Proc: 0]update_local_matrix_data: 259.844 [ms]
[OGL LOG][Proc: 0]update_non_local_matrix_data: 105.857 [ms]
[OGL LOG][DevicePersistentBase.H:106] reading device_partition from registry
[OGL LOG][DevicePersistentBase.H:106] reading p_matrix from registry
[OGL LOG][Proc: 0]call_update: 440.135 [ms]
[OGL LOG][DevicePersistentBase.H:106] reading p_rhs from registry
[OGL LOG][Proc: 0]call_update: 73.829 [ms]
[OGL LOG][DevicePersistentBase.H:106] reading p_solution from registry
[OGL LOG][Proc: 0]init_precond: 0.061 [ms]
[OGL LOG][StoppingCriterion.H:588] Creating stopping criterion with minIter 576 frequency 10
[OGL LOG][Proc: 0]generate_solver: 0.006 [ms]
[OGL LOG][Proc: 0]solve: 2388.08 [ms]
[OGL LOG][Proc: 0]copy_x_back: 12.773 [ms]
[OGL LOG][lduLduBase.H:297] 
Statistics:
	Time per iteration: 2537 [mu s]
	Time per residual norm calculation: 307.000000 [mu s]
	Time per iteration and DOF: 0.093963 [ns]
	Retrieve results bandwith 2.113000 [GByte/s]
nonehipGKOCG:  Solving for p, Initial residual = 0.00721507, Final residual = 9.93114e-05, No Iterations 941
linear solve p 3297.01 [ms]
piso step 3558.69 [ms]
 contErrors 
time step continuity errors : sum local = 3.18428e-10, global = -3.98468e-22, cumulative = -5.04679e-21
ExecutionTime = 316.75 s  ClockTime = 319 s

Time = 0.000666667

Courant Number mean: 0.00588325 max: 0.0958242
DILUPBiCGStab:  Solving for Ux, Initial residual = 0.00809381, Final residual = 2.02231e-06, No Iterations 5
DILUPBiCGStab:  Solving for Uy, Initial residual = 0.0120416, Final residual = 1.90953e-06, No Iterations 5
DILUPBiCGStab:  Solving for Uz, Initial residual = 0.0232976, Final residual = 2.53737e-06, No Iterations 5
linear solve U 4020.13 [ms]
piso setup 746.337 [ms]
 correctNonOrthogonal 
 setRef 
 startSolve 
[OGL LOG][Proc: 0]global_index_init: 4.012 [ms]
[OGL LOG][DevicePersistentBase.H:106] reading p_local_cols from registry
[OGL LOG][DevicePersistentBase.H:106] reading p_local_rows from registry
[OGL LOG][DevicePersistentBase.H:106] reading p_local_coeffs from registry
[OGL LOG][Proc: 0]call_update: 0 [ms]
[OGL LOG][DevicePersistentBase.H:106] reading p_ldu_csr_map from registry
[OGL LOG][DevicePersistentBase.H:106] reading p_non_local_cols from registry
[OGL LOG][DevicePersistentBase.H:106] reading p_non_local_rows from registry
[OGL LOG][DevicePersistentBase.H:106] reading p_non_local_coeffs from registry
[OGL LOG][Proc: 0]call_update: 0 [ms]
[OGL LOG][Proc: 0]update_local_matrix_data: 272.907 [ms]
[OGL LOG][Proc: 0]update_non_local_matrix_data: 85.405 [ms]
[OGL LOG][DevicePersistentBase.H:106] reading device_partition from registry
[OGL LOG][DevicePersistentBase.H:106] reading p_matrix from registry
[OGL LOG][Proc: 0]call_update: 477.125 [ms]
[OGL LOG][DevicePersistentBase.H:106] reading p_rhs from registry
[OGL LOG][Proc: 0]call_update: 90.123 [ms]
[OGL LOG][DevicePersistentBase.H:106] reading p_solution from registry
[OGL LOG][Proc: 0]init_precond: 0.063 [ms]
[OGL LOG][StoppingCriterion.H:588] Creating stopping criterion with minIter 564 frequency 10
[OGL LOG][Proc: 0]generate_solver: 0.006 [ms]
[OGL LOG][Proc: 0]solve: 2239.33 [ms]
[OGL LOG][Proc: 0]copy_x_back: 16.618 [ms]
[OGL LOG][lduLduBase.H:297] 
Statistics:
	Time per iteration: 2600 [mu s]
	Time per residual norm calculation: 292.000000 [mu s]
	Time per iteration and DOF: 0.096296 [ns]
	Retrieve results bandwith 1.624000 [GByte/s]
nonehipGKOCG:  Solving for p, Initial residual = 0.00714154, Final residual = 8.65689e-05, No Iterations 861
linear solve p 3205.61 [ms]
piso step 3517.88 [ms]
 contErrors 
time step continuity errors : sum local = 2.72747e-10, global = -1.18682e-22, cumulative = -5.16547e-21
piso setup 626.356 [ms]
 correctNonOrthogonal 
 setRef 
 startSolve 
[OGL LOG][Proc: 0]global_index_init: 4.067 [ms]
[OGL LOG][DevicePersistentBase.H:106] reading p_local_cols from registry
[OGL LOG][DevicePersistentBase.H:106] reading p_local_rows from registry
[OGL LOG][DevicePersistentBase.H:106] reading p_local_coeffs from registry
[OGL LOG][Proc: 0]call_update: 0 [ms]
[OGL LOG][DevicePersistentBase.H:106] reading p_ldu_csr_map from registry
[OGL LOG][DevicePersistentBase.H:106] reading p_non_local_cols from registry
[OGL LOG][DevicePersistentBase.H:106] reading p_non_local_rows from registry
[OGL LOG][DevicePersistentBase.H:106] reading p_non_local_coeffs from registry
[OGL LOG][Proc: 0]call_update: 0 [ms]
[OGL LOG][Proc: 0]update_local_matrix_data: 260.258 [ms]
[OGL LOG][Proc: 0]update_non_local_matrix_data: 86.812 [ms]
[OGL LOG][DevicePersistentBase.H:106] reading device_partition from registry
[OGL LOG][DevicePersistentBase.H:106] reading p_matrix from registry
[OGL LOG][Proc: 0]call_update: 433.553 [ms]
[OGL LOG][DevicePersistentBase.H:106] reading p_rhs from registry
[OGL LOG][Proc: 0]call_update: 92.794 [ms]
[OGL LOG][DevicePersistentBase.H:106] reading p_solution from registry
[OGL LOG][Proc: 0]init_precond: 0.052 [ms]
[OGL LOG][StoppingCriterion.H:588] Creating stopping criterion with minIter 516 frequency 10
[OGL LOG][Proc: 0]generate_solver: 0.004 [ms]
[OGL LOG][Proc: 0]solve: 2173.48 [ms]
[OGL LOG][Proc: 0]copy_x_back: 9.156 [ms]
[OGL LOG][lduLduBase.H:297] 
Statistics:
	Time per iteration: 2554 [mu s]
	Time per residual norm calculation: 303.000000 [mu s]
	Time per iteration and DOF: 0.094593 [ns]
	Retrieve results bandwith 2.948000 [GByte/s]
nonehipGKOCG:  Solving for p, Initial residual = 0.00669491, Final residual = 8.95787e-05, No Iterations 851
linear solve p 3075.75 [ms]
piso step 3337.24 [ms]
 contErrors 
time step continuity errors : sum local = 2.85979e-10, global = -3.65241e-22, cumulative = -5.53071e-21
ExecutionTime = 330.38 s  ClockTime = 333 s

End

Finalising parallel run
================================================================================
