hash: 14f7eca0f287024adcc0bb6c34f23c74
/*---------------------------------------------------------------------------*\
| =========                 |                                                 |
| \\      /  F ield         | OpenFOAM: The Open Source CFD Toolbox           |
|  \\    /   O peration     | Version:  v2106                                 |
|   \\  /    A nd           | Website:  www.openfoam.com                      |
|    \\/     M anipulation  |                                                 |
\*---------------------------------------------------------------------------*/
Build  : f815a12bba-20210902 OPENFOAM=2106
Arch   : "LSB;label=32;scalar=64"
Exec   : icoFoam -parallel
Date   : Sep 28 2022
Time   : 10:12:03
Host   : nla-gpu2.ianm.kit.edu
PID    : 1055100
I/O    : uncollated
Case   : /home/greole/data/code/ogl_labbook/lidDrivenCavity/single_node/mesh/100/matrix_solver/CG_NoPrecond_PETSC_HIP/mpiRank_of/32/base
nProcs : 32
Hosts  :
(
    (nla-gpu2.ianm.kit.edu 32)
)
Pstream initialized with:
    floatTransfer      : 0
    nProcsSimpleSum    : 0
    commsType          : nonBlocking
    polling iterations : 0
trapFpe: Floating point exception trapping enabled (FOAM_SIGFPE).
fileModificationChecking : Monitoring run-time modified files using timeStampMaster (fileModificationSkew 5, maxFileModificationPolls 20)
allowSystemOperations : Allowing user-supplied system call operations

// * * * * * * * * * * * * * * * * * * * * * * * * * * * * * * * * * * * * * //
Create time

Create mesh for time = 0


PISO: Operating solver in PISO mode

Reading transportProperties

Reading field p

Reading field U

Reading/calculating face flux field phi


Starting time loop

Time = 0.0001

Courant Number mean: 0 max: 0
DILUPBiCGStab:  Solving for Ux, Initial residual = 1, Final residual = 5.11961e-06, No Iterations 5
DILUPBiCGStab:  Solving for Uy:  solution singularity
DILUPBiCGStab:  Solving for Uz:  solution singularity
linear solve U 50.472 [ms]
piso setup 53.198 [ms]
 correctNonOrthogonal 
 setRef 
 startSolve 
Initializing PETSc
PETSc-cg:  Solving for p, Initial residual = 1, Final residual = 9.67795e-05, No Iterations 794
linear solve p 1200.56 [ms]
piso step 1219.49 [ms]
 contErrors 
time step continuity errors : sum local = 1.70985e-09, global = 3.72441e-22, cumulative = 3.72441e-22
piso setup 39.746 [ms]
 correctNonOrthogonal 
 setRef 
 startSolve 
PETSc-cg:  Solving for p, Initial residual = 0.559986, Final residual = 9.74494e-05, No Iterations 777
linear solve p 1078.76 [ms]
piso step 1098.08 [ms]
 contErrors 
time step continuity errors : sum local = 2.66562e-09, global = -6.29627e-22, cumulative = -2.57186e-22
ExecutionTime = 2.85 s  ClockTime = 3 s

Time = 0.0002

Courant Number mean: 0.00201332 max: 0.0540371
DILUPBiCGStab:  Solving for Ux, Initial residual = 0.216464, Final residual = 4.03946e-06, No Iterations 5
DILUPBiCGStab:  Solving for Uy, Initial residual = 0.309938, Final residual = 3.41666e-06, No Iterations 5
DILUPBiCGStab:  Solving for Uz, Initial residual = 0.98131, Final residual = 9.74794e-06, No Iterations 5
linear solve U 36.6 [ms]
piso setup 20.928 [ms]
 correctNonOrthogonal 
 setRef 
 startSolve 
PETSc-cg:  Solving for p, Initial residual = 0.381697, Final residual = 9.96952e-05, No Iterations 768
linear solve p 1077.27 [ms]
piso step 1089.28 [ms]
 contErrors 
time step continuity errors : sum local = 2.60738e-09, global = -2.22969e-22, cumulative = -4.80155e-22
piso setup 23.678 [ms]
 correctNonOrthogonal 
 setRef 
 startSolve 
PETSc-cg:  Solving for p, Initial residual = 0.284806, Final residual = 9.59507e-05, No Iterations 764
linear solve p 1057.23 [ms]
piso step 1069.35 [ms]
 contErrors 
time step continuity errors : sum local = 2.62929e-09, global = -1.08027e-21, cumulative = -1.56043e-21
ExecutionTime = 5.12 s  ClockTime = 6 s

Time = 0.0003

Courant Number mean: 0.00317979 max: 0.0721774
DILUPBiCGStab:  Solving for Ux, Initial residual = 0.0963257, Final residual = 1.67916e-06, No Iterations 5
DILUPBiCGStab:  Solving for Uy, Initial residual = 0.140691, Final residual = 1.46743e-06, No Iterations 5
DILUPBiCGStab:  Solving for Uz, Initial residual = 0.205664, Final residual = 2.19588e-06, No Iterations 5
linear solve U 31.527 [ms]
piso setup 15.76 [ms]
 correctNonOrthogonal 
 setRef 
 startSolve 
PETSc-cg:  Solving for p, Initial residual = 0.128596, Final residual = 9.71604e-05, No Iterations 743
linear solve p 978.863 [ms]
piso step 990.883 [ms]
 contErrors 
time step continuity errors : sum local = 2.28944e-09, global = -6.36686e-22, cumulative = -2.19711e-21
piso setup 16.961 [ms]
 correctNonOrthogonal 
 setRef 
 startSolve 
PETSc-cg:  Solving for p, Initial residual = 0.0996278, Final residual = 9.40321e-05, No Iterations 737
linear solve p 1011.56 [ms]
piso step 1021.89 [ms]
 contErrors 
time step continuity errors : sum local = 2.24453e-09, global = -3.06102e-22, cumulative = -2.50322e-21
ExecutionTime = 7.24 s  ClockTime = 8 s

Time = 0.0004

Courant Number mean: 0.00397984 max: 0.0793325
DILUPBiCGStab:  Solving for Ux, Initial residual = 0.0593651, Final residual = 8.48475e-07, No Iterations 5
DILUPBiCGStab:  Solving for Uy, Initial residual = 0.0868086, Final residual = 7.57958e-07, No Iterations 5
DILUPBiCGStab:  Solving for Uz, Initial residual = 0.127085, Final residual = 9.71621e-07, No Iterations 5
linear solve U 41.207 [ms]
piso setup 14.789 [ms]
 correctNonOrthogonal 
 setRef 
 startSolve 
PETSc-cg:  Solving for p, Initial residual = 0.064301, Final residual = 9.71423e-05, No Iterations 729
linear solve p 987.959 [ms]
piso step 998.34 [ms]
 contErrors 
time step continuity errors : sum local = 2.25221e-09, global = -1.61648e-21, cumulative = -4.1197e-21
piso setup 14.161 [ms]
 correctNonOrthogonal 
 setRef 
 startSolve 
PETSc-cg:  Solving for p, Initial residual = 0.0497349, Final residual = 9.9856e-05, No Iterations 719
linear solve p 962.362 [ms]
piso step 970.951 [ms]
 contErrors 
time step continuity errors : sum local = 2.35109e-09, global = -1.01119e-21, cumulative = -5.13089e-21
ExecutionTime = 9.31 s  ClockTime = 10 s

Time = 0.0005

Courant Number mean: 0.00460129 max: 0.082885
DILUPBiCGStab:  Solving for Ux, Initial residual = 0.0428599, Final residual = 5.81762e-07, No Iterations 5
DILUPBiCGStab:  Solving for Uy, Initial residual = 0.0618649, Final residual = 4.25782e-07, No Iterations 5
DILUPBiCGStab:  Solving for Uz, Initial residual = 0.0971377, Final residual = 6.07032e-07, No Iterations 5
linear solve U 31.004 [ms]
piso setup 12.164 [ms]
 correctNonOrthogonal 
 setRef 
 startSolve 
PETSc-cg:  Solving for p, Initial residual = 0.0389514, Final residual = 9.90207e-05, No Iterations 402
linear solve p 556.928 [ms]
piso step 565.967 [ms]
 contErrors 
time step continuity errors : sum local = 2.66611e-09, global = -1.2878e-21, cumulative = -6.41869e-21
piso setup 15.125 [ms]
 correctNonOrthogonal 
 setRef 
 startSolve 
PETSc-cg:  Solving for p, Initial residual = 0.0305801, Final residual = 9.84826e-05, No Iterations 339
linear solve p 493.069 [ms]
piso step 501.73 [ms]
 contErrors 
time step continuity errors : sum local = 2.46201e-09, global = 2.43439e-22, cumulative = -6.17525e-21
ExecutionTime = 10.46 s  ClockTime = 11 s

Time = 0.0006

Courant Number mean: 0.00511864 max: 0.0850107
DILUPBiCGStab:  Solving for Ux, Initial residual = 0.0336701, Final residual = 4.249e-07, No Iterations 5
DILUPBiCGStab:  Solving for Uy, Initial residual = 0.0480492, Final residual = 2.6857e-07, No Iterations 5
DILUPBiCGStab:  Solving for Uz, Initial residual = 0.0802598, Final residual = 4.76992e-07, No Iterations 5
linear solve U 35.867 [ms]
piso setup 9.053 [ms]
 correctNonOrthogonal 
 setRef 
 startSolve 
PETSc-cg:  Solving for p, Initial residual = 0.0269296, Final residual = 9.75823e-05, No Iterations 341
linear solve p 453.327 [ms]
piso step 460.718 [ms]
 contErrors 
time step continuity errors : sum local = 2.54892e-09, global = -1.2074e-21, cumulative = -7.38266e-21
piso setup 10.923 [ms]
 correctNonOrthogonal 
 setRef 
 startSolve 
PETSc-cg:  Solving for p, Initial residual = 0.0213699, Final residual = 9.57295e-05, No Iterations 312
linear solve p 419.148 [ms]
piso step 425.131 [ms]
 contErrors 
time step continuity errors : sum local = 2.42931e-09, global = -1.08123e-21, cumulative = -8.46388e-21
ExecutionTime = 11.43 s  ClockTime = 12 s

Time = 0.0007

Courant Number mean: 0.00556497 max: 0.0864549
DILUPBiCGStab:  Solving for Ux, Initial residual = 0.0277666, Final residual = 3.23588e-07, No Iterations 5
DILUPBiCGStab:  Solving for Uy, Initial residual = 0.0392374, Final residual = 1.94328e-07, No Iterations 5
DILUPBiCGStab:  Solving for Uz, Initial residual = 0.0677421, Final residual = 3.85035e-07, No Iterations 5
linear solve U 33.172 [ms]
piso setup 9.448 [ms]
 correctNonOrthogonal 
 setRef 
 startSolve 
PETSc-cg:  Solving for p, Initial residual = 0.0207674, Final residual = 9.67373e-05, No Iterations 301
linear solve p 400.5 [ms]
piso step 406.318 [ms]
 contErrors 
time step continuity errors : sum local = 2.58479e-09, global = -1.79207e-21, cumulative = -1.0256e-20
piso setup 8.419 [ms]
 correctNonOrthogonal 
 setRef 
 startSolve 
PETSc-cg:  Solving for p, Initial residual = 0.0165045, Final residual = 9.76209e-05, No Iterations 293
linear solve p 393.691 [ms]
piso step 400.576 [ms]
 contErrors 
time step continuity errors : sum local = 2.52483e-09, global = -5.58161e-22, cumulative = -1.08141e-20
ExecutionTime = 12.33 s  ClockTime = 13 s

Time = 0.0008

Courant Number mean: 0.0059623 max: 0.0875193
DILUPBiCGStab:  Solving for Ux, Initial residual = 0.0236243, Final residual = 2.61674e-07, No Iterations 5
DILUPBiCGStab:  Solving for Uy, Initial residual = 0.0331355, Final residual = 1.5442e-07, No Iterations 5
DILUPBiCGStab:  Solving for Uz, Initial residual = 0.0588704, Final residual = 3.08941e-07, No Iterations 5
linear solve U 33.259 [ms]
piso setup 10.123 [ms]
 correctNonOrthogonal 
 setRef 
 startSolve 
PETSc-cg:  Solving for p, Initial residual = 0.0166959, Final residual = 9.74868e-05, No Iterations 294
linear solve p 395.108 [ms]
piso step 402.703 [ms]
 contErrors 
time step continuity errors : sum local = 2.6137e-09, global = -9.44454e-22, cumulative = -1.17586e-20
piso setup 10.673 [ms]
 correctNonOrthogonal 
 setRef 
 startSolve 
PETSc-cg:  Solving for p, Initial residual = 0.0133993, Final residual = 9.88089e-05, No Iterations 287
linear solve p 425.618 [ms]
piso step 431.953 [ms]
 contErrors 
time step continuity errors : sum local = 2.5876e-09, global = -1.3232e-21, cumulative = -1.30818e-20
ExecutionTime = 13.24 s  ClockTime = 14 s

Time = 0.0009

Courant Number mean: 0.00631847 max: 0.0883466
DILUPBiCGStab:  Solving for Ux, Initial residual = 0.0205606, Final residual = 2.16779e-07, No Iterations 5
DILUPBiCGStab:  Solving for Uy, Initial residual = 0.0286497, Final residual = 1.29183e-07, No Iterations 5
DILUPBiCGStab:  Solving for Uz, Initial residual = 0.0520057, Final residual = 2.5524e-07, No Iterations 5
linear solve U 36.36 [ms]
piso setup 8.117 [ms]
 correctNonOrthogonal 
 setRef 
 startSolve 
PETSc-cg:  Solving for p, Initial residual = 0.0139028, Final residual = 9.87437e-05, No Iterations 288
linear solve p 403.365 [ms]
piso step 408.916 [ms]
 contErrors 
time step continuity errors : sum local = 2.66573e-09, global = -1.68304e-21, cumulative = -1.47648e-20
piso setup 13.303 [ms]
 correctNonOrthogonal 
 setRef 
 startSolve 
PETSc-cg:  Solving for p, Initial residual = 0.0112151, Final residual = 9.76724e-05, No Iterations 283
linear solve p 404.714 [ms]
piso step 410.62 [ms]
 contErrors 
time step continuity errors : sum local = 2.59038e-09, global = -5.44947e-22, cumulative = -1.53098e-20
ExecutionTime = 14.14 s  ClockTime = 15 s

Time = 0.001

Courant Number mean: 0.00664438 max: 0.089014
DILUPBiCGStab:  Solving for Ux, Initial residual = 0.0181846, Final residual = 1.82148e-07, No Iterations 5
DILUPBiCGStab:  Solving for Uy, Initial residual = 0.0252122, Final residual = 1.11408e-07, No Iterations 5
DILUPBiCGStab:  Solving for Uz, Initial residual = 0.0465187, Final residual = 2.20619e-07, No Iterations 5
linear solve U 32.265 [ms]
piso setup 8.638 [ms]
 correctNonOrthogonal 
 setRef 
 startSolve 
PETSc-cg:  Solving for p, Initial residual = 0.0118838, Final residual = 9.89794e-05, No Iterations 285
linear solve p 379.305 [ms]
piso step 386.434 [ms]
 contErrors 
time step continuity errors : sum local = 2.68754e-09, global = -1.91726e-21, cumulative = -1.7227e-20
piso setup 21.52 [ms]
 correctNonOrthogonal 
 setRef 
 startSolve 
PETSc-cg:  Solving for p, Initial residual = 0.00962488, Final residual = 9.95532e-05, No Iterations 280
linear solve p 376.584 [ms]
piso step 389.925 [ms]
 contErrors 
time step continuity errors : sum local = 2.6609e-09, global = -8.94368e-22, cumulative = -1.81214e-20
ExecutionTime = 15.01 s  ClockTime = 16 s

Time = 0.0011

Courant Number mean: 0.00694533 max: 0.0895673
DILUPBiCGStab:  Solving for Ux, Initial residual = 0.016298, Final residual = 1.5498e-07, No Iterations 5
DILUPBiCGStab:  Solving for Uy, Initial residual = 0.0224932, Final residual = 9.81169e-08, No Iterations 5
DILUPBiCGStab:  Solving for Uz, Initial residual = 0.042037, Final residual = 1.96904e-07, No Iterations 5
linear solve U 37.004 [ms]
piso setup 7.194 [ms]
 correctNonOrthogonal 
 setRef 
 startSolve 
PETSc-cg:  Solving for p, Initial residual = 0.0102911, Final residual = 9.86627e-05, No Iterations 283
linear solve p 379.95 [ms]
piso step 384.472 [ms]
 contErrors 
time step continuity errors : sum local = 2.69557e-09, global = -9.83104e-22, cumulative = -1.91045e-20
piso setup 7.476 [ms]
 correctNonOrthogonal 
 setRef 
 startSolve 
PETSc-cg:  Solving for p, Initial residual = 0.00836036, Final residual = 9.52186e-05, No Iterations 278
linear solve p 370.138 [ms]
piso step 377.604 [ms]
 contErrors 
time step continuity errors : sum local = 2.57656e-09, global = -1.22001e-21, cumulative = -2.03245e-20
ExecutionTime = 15.85 s  ClockTime = 17 s

Time = 0.0012

Courant Number mean: 0.0072238 max: 0.0900356
DILUPBiCGStab:  Solving for Ux, Initial residual = 0.0147479, Final residual = 1.33541e-07, No Iterations 5
DILUPBiCGStab:  Solving for Uy, Initial residual = 0.0202888, Final residual = 8.7765e-08, No Iterations 5
DILUPBiCGStab:  Solving for Uz, Initial residual = 0.038311, Final residual = 1.79026e-07, No Iterations 5
linear solve U 31.379 [ms]
piso setup 5.622 [ms]
 correctNonOrthogonal 
 setRef 
 startSolve 
PETSc-cg:  Solving for p, Initial residual = 0.00904497, Final residual = 9.7667e-05, No Iterations 279
linear solve p 388.801 [ms]
piso step 393.8 [ms]
 contErrors 
time step continuity errors : sum local = 2.68461e-09, global = -1.61292e-21, cumulative = -2.19374e-20
piso setup 7.958 [ms]
 correctNonOrthogonal 
 setRef 
 startSolve 
PETSc-cg:  Solving for p, Initial residual = 0.00738499, Final residual = 9.81779e-05, No Iterations 275
linear solve p 368.238 [ms]
piso step 372.33 [ms]
 contErrors 
time step continuity errors : sum local = 2.6668e-09, global = -2.63629e-21, cumulative = -2.45737e-20
ExecutionTime = 16.68 s  ClockTime = 18 s

Time = 0.0013

Courant Number mean: 0.00748302 max: 0.0904386
DILUPBiCGStab:  Solving for Ux, Initial residual = 0.0134667, Final residual = 1.16451e-07, No Iterations 5
DILUPBiCGStab:  Solving for Uy, Initial residual = 0.0184655, Final residual = 7.94789e-08, No Iterations 5
DILUPBiCGStab:  Solving for Uz, Initial residual = 0.0351691, Final residual = 1.64382e-07, No Iterations 5
linear solve U 32.014 [ms]
piso setup 7.393 [ms]
 correctNonOrthogonal 
 setRef 
 startSolve 
PETSc-cg:  Solving for p, Initial residual = 0.00809383, Final residual = 9.75704e-05, No Iterations 276
linear solve p 367.603 [ms]
piso step 375.353 [ms]
 contErrors 
time step continuity errors : sum local = 2.69472e-09, global = -2.37914e-21, cumulative = -2.69528e-20
piso setup 7.697 [ms]
 correctNonOrthogonal 
 setRef 
 startSolve 
PETSc-cg:  Solving for p, Initial residual = 0.00662859, Final residual = 9.97941e-05, No Iterations 271
linear solve p 378.064 [ms]
piso step 382.899 [ms]
 contErrors 
time step continuity errors : sum local = 2.72251e-09, global = -1.43334e-21, cumulative = -2.83862e-20
ExecutionTime = 17.5 s  ClockTime = 18 s

Time = 0.0014

Courant Number mean: 0.00772784 max: 0.0907903
DILUPBiCGStab:  Solving for Ux, Initial residual = 0.0123791, Final residual = 1.02685e-07, No Iterations 5
DILUPBiCGStab:  Solving for Uy, Initial residual = 0.0169327, Final residual = 7.27048e-08, No Iterations 5
DILUPBiCGStab:  Solving for Uz, Initial residual = 0.0324831, Final residual = 1.51564e-07, No Iterations 5
linear solve U 37.111 [ms]
piso setup 5.69 [ms]
 correctNonOrthogonal 
 setRef 
 startSolve 
PETSc-cg:  Solving for p, Initial residual = 0.00727943, Final residual = 9.83971e-05, No Iterations 274
linear solve p 384.711 [ms]
piso step 390.016 [ms]
 contErrors 
time step continuity errors : sum local = 2.72622e-09, global = -1.80671e-21, cumulative = -3.01929e-20
piso setup 6.789 [ms]
 correctNonOrthogonal 
 setRef 
 startSolve 
PETSc-cg:  Solving for p, Initial residual = 0.00597881, Final residual = 9.70976e-05, No Iterations 270
linear solve p 374.62 [ms]
piso step 379.174 [ms]
 contErrors 
time step continuity errors : sum local = 2.67015e-09, global = -7.76557e-22, cumulative = -3.09694e-20
ExecutionTime = 18.35 s  ClockTime = 19 s

Time = 0.0015

Courant Number mean: 0.00795861 max: 0.0911006
DILUPBiCGStab:  Solving for Ux, Initial residual = 0.0114468, Final residual = 9.14637e-08, No Iterations 5
DILUPBiCGStab:  Solving for Uy, Initial residual = 0.0156261, Final residual = 6.70755e-08, No Iterations 5
DILUPBiCGStab:  Solving for Uz, Initial residual = 0.0301614, Final residual = 1.39893e-07, No Iterations 5
linear solve U 33.829 [ms]
piso setup 6.553 [ms]
 correctNonOrthogonal 
 setRef 
 startSolve 
PETSc-cg:  Solving for p, Initial residual = 0.00657933, Final residual = 9.82251e-05, No Iterations 271
linear solve p 377.945 [ms]
piso step 383.624 [ms]
 contErrors 
time step continuity errors : sum local = 2.73146e-09, global = -1.31178e-21, cumulative = -3.22812e-20
piso setup 7.473 [ms]
 correctNonOrthogonal 
 setRef 
 startSolve 
PETSc-cg:  Solving for p, Initial residual = 0.00542539, Final residual = 9.8316e-05, No Iterations 266
linear solve p 372.116 [ms]
piso step 377.297 [ms]
 contErrors 
time step continuity errors : sum local = 2.71239e-09, global = -2.13212e-21, cumulative = -3.44133e-20
ExecutionTime = 19.17 s  ClockTime = 20 s

Time = 0.0016

Courant Number mean: 0.00817649 max: 0.0913769
DILUPBiCGStab:  Solving for Ux, Initial residual = 0.0106404, Final residual = 8.21873e-08, No Iterations 5
DILUPBiCGStab:  Solving for Uy, Initial residual = 0.0144993, Final residual = 6.23318e-08, No Iterations 5
DILUPBiCGStab:  Solving for Uz, Initial residual = 0.028136, Final residual = 1.29221e-07, No Iterations 5
linear solve U 34.34 [ms]
piso setup 7.164 [ms]
 correctNonOrthogonal 
 setRef 
 startSolve 
PETSc-cg:  Solving for p, Initial residual = 0.00603091, Final residual = 9.86972e-05, No Iterations 271
linear solve p 359.558 [ms]
piso step 364.641 [ms]
 contErrors 
time step continuity errors : sum local = 2.75249e-09, global = -2.22055e-21, cumulative = -3.66339e-20
piso setup 6.472 [ms]
 correctNonOrthogonal 
 setRef 
 startSolve 
PETSc-cg:  Solving for p, Initial residual = 0.00496399, Final residual = 9.48292e-05, No Iterations 265
linear solve p 346.516 [ms]
piso step 350.998 [ms]
 contErrors 
time step continuity errors : sum local = 2.63739e-09, global = -2.57619e-21, cumulative = -3.92101e-20
ExecutionTime = 19.96 s  ClockTime = 21 s

Time = 0.0017

Courant Number mean: 0.00838249 max: 0.0916252
DILUPBiCGStab:  Solving for Ux, Initial residual = 0.00993237, Final residual = 7.4453e-08, No Iterations 5
DILUPBiCGStab:  Solving for Uy, Initial residual = 0.0135175, Final residual = 5.8277e-08, No Iterations 5
DILUPBiCGStab:  Solving for Uz, Initial residual = 0.0263532, Final residual = 1.19367e-07, No Iterations 5
linear solve U 33.046 [ms]
piso setup 6.524 [ms]
 correctNonOrthogonal 
 setRef 
 startSolve 
PETSc-cg:  Solving for p, Initial residual = 0.00548757, Final residual = 9.97347e-05, No Iterations 266
linear solve p 376.342 [ms]
piso step 380.414 [ms]
 contErrors 
time step continuity errors : sum local = 2.78557e-09, global = -2.30426e-21, cumulative = -4.15143e-20
piso setup 7.204 [ms]
 correctNonOrthogonal 
 setRef 
 startSolve 
PETSc-cg:  Solving for p, Initial residual = 0.00454706, Final residual = 9.64163e-05, No Iterations 263
linear solve p 343.942 [ms]
piso step 348.124 [ms]
 contErrors 
time step continuity errors : sum local = 2.68602e-09, global = -2.16287e-21, cumulative = -4.36772e-20
ExecutionTime = 20.76 s  ClockTime = 22 s

Time = 0.0018

Courant Number mean: 0.00857955 max: 0.0918497
DILUPBiCGStab:  Solving for Ux, Initial residual = 0.00931096, Final residual = 6.79455e-08, No Iterations 5
DILUPBiCGStab:  Solving for Uy, Initial residual = 0.0126547, Final residual = 5.47788e-08, No Iterations 5
DILUPBiCGStab:  Solving for Uz, Initial residual = 0.0247729, Final residual = 1.10455e-07, No Iterations 5
linear solve U 32.066 [ms]
piso setup 6.387 [ms]
 correctNonOrthogonal 
 setRef 
 startSolve 
PETSc-cg:  Solving for p, Initial residual = 0.00513443, Final residual = 9.93992e-05, No Iterations 264
linear solve p 358.613 [ms]
piso step 363.814 [ms]
 contErrors 
time step continuity errors : sum local = 2.78519e-09, global = -5.53591e-22, cumulative = -4.42308e-20
piso setup 9.781 [ms]
 correctNonOrthogonal 
 setRef 
 startSolve 
PETSc-cg:  Solving for p, Initial residual = 0.00426307, Final residual = 9.05648e-05, No Iterations 262
linear solve p 363.138 [ms]
piso step 368.298 [ms]
 contErrors 
time step continuity errors : sum local = 2.55016e-09, global = -2.21711e-21, cumulative = -4.64479e-20
ExecutionTime = 21.56 s  ClockTime = 23 s

Time = 0.0019

Courant Number mean: 0.00876813 max: 0.092054
DILUPBiCGStab:  Solving for Ux, Initial residual = 0.00875811, Final residual = 6.23849e-08, No Iterations 5
DILUPBiCGStab:  Solving for Uy, Initial residual = 0.0118904, Final residual = 5.17233e-08, No Iterations 5
DILUPBiCGStab:  Solving for Uz, Initial residual = 0.0233622, Final residual = 1.02404e-07, No Iterations 5
linear solve U 31.898 [ms]
piso setup 5.786 [ms]
 correctNonOrthogonal 
 setRef 
 startSolve 
PETSc-cg:  Solving for p, Initial residual = 0.00475342, Final residual = 9.85625e-05, No Iterations 265
linear solve p 357.528 [ms]
piso step 362.453 [ms]
 contErrors 
time step continuity errors : sum local = 2.77109e-09, global = -2.55487e-21, cumulative = -4.90028e-20
piso setup 6.773 [ms]
 correctNonOrthogonal 
 setRef 
 startSolve 
PETSc-cg:  Solving for p, Initial residual = 0.00394523, Final residual = 9.68307e-05, No Iterations 259
linear solve p 344.27 [ms]
piso step 349.512 [ms]
 contErrors 
time step continuity errors : sum local = 2.71293e-09, global = -2.09628e-21, cumulative = -5.10991e-20
ExecutionTime = 22.33 s  ClockTime = 23 s

Time = 0.002

Courant Number mean: 0.00894849 max: 0.0922409
DILUPBiCGStab:  Solving for Ux, Initial residual = 0.00826098, Final residual = 5.7601e-08, No Iterations 5
DILUPBiCGStab:  Solving for Uy, Initial residual = 0.0112088, Final residual = 4.90317e-08, No Iterations 5
DILUPBiCGStab:  Solving for Uz, Initial residual = 0.0220958, Final residual = 9.51254e-08, No Iterations 5
linear solve U 32.78 [ms]
piso setup 5.739 [ms]
 correctNonOrthogonal 
 setRef 
 startSolve 
PETSc-cg:  Solving for p, Initial residual = 0.00439844, Final residual = 9.93143e-05, No Iterations 263
linear solve p 365.425 [ms]
piso step 370.862 [ms]
 contErrors 
time step continuity errors : sum local = 2.79568e-09, global = -1.801e-21, cumulative = -5.29001e-20
piso setup 8.703 [ms]
 correctNonOrthogonal 
 setRef 
 startSolve 
PETSc-cg:  Solving for p, Initial residual = 0.003654, Final residual = 9.75242e-05, No Iterations 255
linear solve p 345.605 [ms]
piso step 349.889 [ms]
 contErrors 
time step continuity errors : sum local = 2.73715e-09, global = -1.93844e-21, cumulative = -5.48385e-20
ExecutionTime = 23.12 s  ClockTime = 24 s

End

Finalizing PETSc
Finalising parallel run
================================================================================
hash: c6b41e0e776b4f1b5772daadf50a2487
/*---------------------------------------------------------------------------*\
| =========                 |                                                 |
| \\      /  F ield         | OpenFOAM: The Open Source CFD Toolbox           |
|  \\    /   O peration     | Version:  v2106                                 |
|   \\  /    A nd           | Website:  www.openfoam.com                      |
|    \\/     M anipulation  |                                                 |
\*---------------------------------------------------------------------------*/
Build  : f815a12bba-20210902 OPENFOAM=2106
Arch   : "LSB;label=32;scalar=64"
Exec   : icoFoam -parallel
Date   : Sep 28 2022
Time   : 10:12:30
Host   : nla-gpu2.ianm.kit.edu
PID    : 1055340
I/O    : uncollated
Case   : /home/greole/data/code/ogl_labbook/lidDrivenCavity/single_node/mesh/150/matrix_solver/CG_NoPrecond_PETSC_HIP/mpiRank_of/32/base
nProcs : 32
Hosts  :
(
    (nla-gpu2.ianm.kit.edu 32)
)
Pstream initialized with:
    floatTransfer      : 0
    nProcsSimpleSum    : 0
    commsType          : nonBlocking
    polling iterations : 0
trapFpe: Floating point exception trapping enabled (FOAM_SIGFPE).
fileModificationChecking : Monitoring run-time modified files using timeStampMaster (fileModificationSkew 5, maxFileModificationPolls 20)
allowSystemOperations : Allowing user-supplied system call operations

// * * * * * * * * * * * * * * * * * * * * * * * * * * * * * * * * * * * * * //
Create time

Create mesh for time = 0


PISO: Operating solver in PISO mode

Reading transportProperties

Reading field p

Reading field U

Reading/calculating face flux field phi


Starting time loop

Time = 6.66667e-05

Courant Number mean: 0 max: 0
DILUPBiCGStab:  Solving for Ux, Initial residual = 1, Final residual = 3.89947e-05, No Iterations 5
DILUPBiCGStab:  Solving for Uy:  solution singularity
DILUPBiCGStab:  Solving for Uz:  solution singularity
linear solve U 123.968 [ms]
piso setup 69.944 [ms]
 correctNonOrthogonal 
 setRef 
 startSolve 
Initializing PETSc
PETSc-cg:  Solving for p, Initial residual = 1, Final residual = 9.93395e-05, No Iterations 1199
linear solve p 3377.04 [ms]
piso step 3409.97 [ms]
 contErrors 
time step continuity errors : sum local = 9.91803e-10, global = 1.51763e-22, cumulative = 1.51763e-22
piso setup 63.682 [ms]
 correctNonOrthogonal 
 setRef 
 startSolve 
PETSc-cg:  Solving for p, Initial residual = 0.611423, Final residual = 9.85808e-05, No Iterations 1177
linear solve p 3103.57 [ms]
piso step 3129.18 [ms]
 contErrors 
time step continuity errors : sum local = 1.46395e-09, global = 1.58662e-22, cumulative = 3.10425e-22
ExecutionTime = 7.54 s  ClockTime = 8 s

Time = 0.000133333

Courant Number mean: 0.00174417 max: 0.0611824
DILUPBiCGStab:  Solving for Ux, Initial residual = 0.201555, Final residual = 2.5587e-05, No Iterations 5
DILUPBiCGStab:  Solving for Uy, Initial residual = 0.321506, Final residual = 2.53455e-05, No Iterations 5
DILUPBiCGStab:  Solving for Uz, Initial residual = 0.989645, Final residual = 8.36039e-05, No Iterations 5
linear solve U 142.691 [ms]
piso setup 37.754 [ms]
 correctNonOrthogonal 
 setRef 
 startSolve 
PETSc-cg:  Solving for p, Initial residual = 0.453047, Final residual = 9.37079e-05, No Iterations 1164
linear solve p 3064.5 [ms]
piso step 3085.24 [ms]
 contErrors 
time step continuity errors : sum local = 1.34121e-09, global = 5.68411e-23, cumulative = 3.67266e-22
piso setup 29.155 [ms]
 correctNonOrthogonal 
 setRef 
 startSolve 
PETSc-cg:  Solving for p, Initial residual = 0.360331, Final residual = 9.8946e-05, No Iterations 1159
linear solve p 3021.73 [ms]
piso step 3039.29 [ms]
 contErrors 
time step continuity errors : sum local = 1.46914e-09, global = 4.88381e-23, cumulative = 4.16104e-22
ExecutionTime = 13.9 s  ClockTime = 15 s

Time = 0.0002

Courant Number mean: 0.00271566 max: 0.0777794
DILUPBiCGStab:  Solving for Ux, Initial residual = 0.0868446, Final residual = 9.95981e-06, No Iterations 5
DILUPBiCGStab:  Solving for Uy, Initial residual = 0.138256, Final residual = 7.27525e-06, No Iterations 5
DILUPBiCGStab:  Solving for Uz, Initial residual = 0.144776, Final residual = 1.45401e-05, No Iterations 5
linear solve U 136.827 [ms]
piso setup 28.4 [ms]
 correctNonOrthogonal 
 setRef 
 startSolve 
PETSc-cg:  Solving for p, Initial residual = 0.173752, Final residual = 9.93609e-05, No Iterations 1138
linear solve p 2966.32 [ms]
piso step 2986.41 [ms]
 contErrors 
time step continuity errors : sum local = 1.17013e-09, global = 5.10914e-22, cumulative = 9.27018e-22
piso setup 23.854 [ms]
 correctNonOrthogonal 
 setRef 
 startSolve 
PETSc-cg:  Solving for p, Initial residual = 0.141199, Final residual = 9.99665e-05, No Iterations 1116
linear solve p 2884.87 [ms]
piso step 2899.79 [ms]
 contErrors 
time step continuity errors : sum local = 1.17498e-09, global = -3.49017e-22, cumulative = 5.78001e-22
ExecutionTime = 19.99 s  ClockTime = 21 s

Time = 0.000266667

Courant Number mean: 0.0033815 max: 0.0835577
DILUPBiCGStab:  Solving for Ux, Initial residual = 0.0544582, Final residual = 4.48347e-06, No Iterations 5
DILUPBiCGStab:  Solving for Uy, Initial residual = 0.086037, Final residual = 4.06591e-06, No Iterations 5
DILUPBiCGStab:  Solving for Uz, Initial residual = 0.11682, Final residual = 7.57029e-06, No Iterations 5
linear solve U 137.992 [ms]
piso setup 29.134 [ms]
 correctNonOrthogonal 
 setRef 
 startSolve 
PETSc-cg:  Solving for p, Initial residual = 0.0874772, Final residual = 9.94291e-05, No Iterations 1106
linear solve p 2859.57 [ms]
piso step 2874.82 [ms]
 contErrors 
time step continuity errors : sum local = 1.11624e-09, global = 1.08111e-22, cumulative = 6.86112e-22
piso setup 26.285 [ms]
 correctNonOrthogonal 
 setRef 
 startSolve 
PETSc-cg:  Solving for p, Initial residual = 0.0701589, Final residual = 9.90987e-05, No Iterations 1099
linear solve p 2831.8 [ms]
piso step 2846.49 [ms]
 contErrors 
time step continuity errors : sum local = 1.12683e-09, global = 4.52771e-22, cumulative = 1.13888e-21
ExecutionTime = 25.92 s  ClockTime = 27 s

Time = 0.000333333

Courant Number mean: 0.00390573 max: 0.0863402
DILUPBiCGStab:  Solving for Ux, Initial residual = 0.0400408, Final residual = 3.07964e-06, No Iterations 5
DILUPBiCGStab:  Solving for Uy, Initial residual = 0.0618407, Final residual = 2.44931e-06, No Iterations 5
DILUPBiCGStab:  Solving for Uz, Initial residual = 0.093447, Final residual = 4.58844e-06, No Iterations 5
linear solve U 140.388 [ms]
piso setup 29.664 [ms]
 correctNonOrthogonal 
 setRef 
 startSolve 
PETSc-cg:  Solving for p, Initial residual = 0.0476586, Final residual = 9.82644e-05, No Iterations 537
linear solve p 1391.47 [ms]
piso step 1407.46 [ms]
 contErrors 
time step continuity errors : sum local = 1.21966e-09, global = 5.02747e-22, cumulative = 1.64163e-21
piso setup 23.308 [ms]
 correctNonOrthogonal 
 setRef 
 startSolve 
PETSc-cg:  Solving for p, Initial residual = 0.0395758, Final residual = 9.81752e-05, No Iterations 509
linear solve p 1311.95 [ms]
piso step 1326.72 [ms]
 contErrors 
time step continuity errors : sum local = 1.14672e-09, global = 5.52371e-22, cumulative = 2.194e-21
ExecutionTime = 28.87 s  ClockTime = 30 s

Time = 0.0004

Courant Number mean: 0.00434732 max: 0.0880159
DILUPBiCGStab:  Solving for Ux, Initial residual = 0.0318467, Final residual = 1.98518e-06, No Iterations 5
DILUPBiCGStab:  Solving for Uy, Initial residual = 0.0483434, Final residual = 1.54889e-06, No Iterations 5
DILUPBiCGStab:  Solving for Uz, Initial residual = 0.0786536, Final residual = 3.44659e-06, No Iterations 5
linear solve U 143.082 [ms]
piso setup 25.602 [ms]
 correctNonOrthogonal 
 setRef 
 startSolve 
PETSc-cg:  Solving for p, Initial residual = 0.0313499, Final residual = 9.92795e-05, No Iterations 485
linear solve p 1253.77 [ms]
piso step 1268.66 [ms]
 contErrors 
time step continuity errors : sum local = 1.17344e-09, global = 2.91528e-22, cumulative = 2.48553e-21
piso setup 24.304 [ms]
 correctNonOrthogonal 
 setRef 
 startSolve 
PETSc-cg:  Solving for p, Initial residual = 0.0263749, Final residual = 9.95745e-05, No Iterations 472
linear solve p 1222.46 [ms]
piso step 1234.88 [ms]
 contErrors 
time step continuity errors : sum local = 1.1581e-09, global = 2.69178e-23, cumulative = 2.51245e-21
ExecutionTime = 31.61 s  ClockTime = 32 s

Time = 0.000466667

Courant Number mean: 0.00473116 max: 0.0891667
DILUPBiCGStab:  Solving for Ux, Initial residual = 0.0265062, Final residual = 1.54297e-06, No Iterations 5
DILUPBiCGStab:  Solving for Uy, Initial residual = 0.0396433, Final residual = 1.13047e-06, No Iterations 5
DILUPBiCGStab:  Solving for Uz, Initial residual = 0.0668578, Final residual = 2.8197e-06, No Iterations 5
linear solve U 137.564 [ms]
piso setup 25.609 [ms]
 correctNonOrthogonal 
 setRef 
 startSolve 
PETSc-cg:  Solving for p, Initial residual = 0.0241477, Final residual = 9.8493e-05, No Iterations 467
linear solve p 1233.11 [ms]
piso step 1247.97 [ms]
 contErrors 
time step continuity errors : sum local = 1.19472e-09, global = 2.47251e-22, cumulative = 2.7597e-21
piso setup 23.13 [ms]
 correctNonOrthogonal 
 setRef 
 startSolve 
PETSc-cg:  Solving for p, Initial residual = 0.0205296, Final residual = 9.91831e-05, No Iterations 452
linear solve p 1180.28 [ms]
piso step 1192.16 [ms]
 contErrors 
time step continuity errors : sum local = 1.17058e-09, global = 6.74159e-22, cumulative = 3.43386e-21
ExecutionTime = 34.27 s  ClockTime = 35 s

Time = 0.000533333

Courant Number mean: 0.00507434 max: 0.0900213
DILUPBiCGStab:  Solving for Ux, Initial residual = 0.0227241, Final residual = 1.24579e-06, No Iterations 5
DILUPBiCGStab:  Solving for Uy, Initial residual = 0.0335808, Final residual = 8.6645e-07, No Iterations 5
DILUPBiCGStab:  Solving for Uz, Initial residual = 0.0582581, Final residual = 2.42438e-06, No Iterations 5
linear solve U 140.801 [ms]
piso setup 23.489 [ms]
 correctNonOrthogonal 
 setRef 
 startSolve 
PETSc-cg:  Solving for p, Initial residual = 0.0189179, Final residual = 9.65244e-05, No Iterations 452
linear solve p 1180.24 [ms]
piso step 1191.97 [ms]
 contErrors 
time step continuity errors : sum local = 1.16304e-09, global = -2.9358e-23, cumulative = 3.4045e-21
piso setup 22.18 [ms]
 correctNonOrthogonal 
 setRef 
 startSolve 
PETSc-cg:  Solving for p, Initial residual = 0.0162814, Final residual = 9.93945e-05, No Iterations 443
linear solve p 1148.14 [ms]
piso step 1158.61 [ms]
 contErrors 
time step continuity errors : sum local = 1.17893e-09, global = 2.69999e-22, cumulative = 3.6745e-21
ExecutionTime = 36.84 s  ClockTime = 38 s

Time = 0.0006

Courant Number mean: 0.00538422 max: 0.0906888
DILUPBiCGStab:  Solving for Ux, Initial residual = 0.0198902, Final residual = 1.01501e-06, No Iterations 5
DILUPBiCGStab:  Solving for Uy, Initial residual = 0.0291029, Final residual = 7.04755e-07, No Iterations 5
DILUPBiCGStab:  Solving for Uz, Initial residual = 0.0516527, Final residual = 2.1382e-06, No Iterations 5
linear solve U 136.123 [ms]
piso setup 24.641 [ms]
 correctNonOrthogonal 
 setRef 
 startSolve 
PETSc-cg:  Solving for p, Initial residual = 0.0159041, Final residual = 9.69152e-05, No Iterations 443
linear solve p 1142.6 [ms]
piso step 1155.33 [ms]
 contErrors 
time step continuity errors : sum local = 1.1784e-09, global = 6.73566e-23, cumulative = 3.74185e-21
piso setup 21.804 [ms]
 correctNonOrthogonal 
 setRef 
 startSolve 
PETSc-cg:  Solving for p, Initial residual = 0.0137461, Final residual = 9.71534e-05, No Iterations 437
linear solve p 1136.35 [ms]
piso step 1149.74 [ms]
 contErrors 
time step continuity errors : sum local = 1.16291e-09, global = 1.46576e-22, cumulative = 3.88843e-21
ExecutionTime = 39.36 s  ClockTime = 40 s

Time = 0.000666667

Courant Number mean: 0.00566923 max: 0.0912289
DILUPBiCGStab:  Solving for Ux, Initial residual = 0.017683, Final residual = 8.38303e-07, No Iterations 5
DILUPBiCGStab:  Solving for Uy, Initial residual = 0.0256634, Final residual = 5.91549e-07, No Iterations 5
DILUPBiCGStab:  Solving for Uz, Initial residual = 0.046337, Final residual = 1.87002e-06, No Iterations 5
linear solve U 143.331 [ms]
piso setup 23.709 [ms]
 correctNonOrthogonal 
 setRef 
 startSolve 
PETSc-cg:  Solving for p, Initial residual = 0.0135395, Final residual = 9.66133e-05, No Iterations 437
linear solve p 1138.79 [ms]
piso step 1151.89 [ms]
 contErrors 
time step continuity errors : sum local = 1.17554e-09, global = 1.37415e-23, cumulative = 3.90217e-21
piso setup 23.335 [ms]
 correctNonOrthogonal 
 setRef 
 startSolve 
PETSc-cg:  Solving for p, Initial residual = 0.0117515, Final residual = 9.44105e-05, No Iterations 433
linear solve p 1126.48 [ms]
piso step 1137.4 [ms]
 contErrors 
time step continuity errors : sum local = 1.13747e-09, global = 4.2311e-22, cumulative = 4.32528e-21
ExecutionTime = 41.87 s  ClockTime = 43 s

Time = 0.000733333

Courant Number mean: 0.00593221 max: 0.0916776
DILUPBiCGStab:  Solving for Ux, Initial residual = 0.0159171, Final residual = 7.02924e-07, No Iterations 5
DILUPBiCGStab:  Solving for Uy, Initial residual = 0.0229363, Final residual = 5.10064e-07, No Iterations 5
DILUPBiCGStab:  Solving for Uz, Initial residual = 0.0420045, Final residual = 1.62762e-06, No Iterations 5
linear solve U 138.948 [ms]
piso setup 23.256 [ms]
 correctNonOrthogonal 
 setRef 
 startSolve 
PETSc-cg:  Solving for p, Initial residual = 0.0118168, Final residual = 9.43421e-05, No Iterations 433
linear solve p 1126.49 [ms]
piso step 1137.74 [ms]
 contErrors 
time step continuity errors : sum local = 1.15525e-09, global = 9.69425e-22, cumulative = 5.29471e-21
piso setup 22.189 [ms]
 correctNonOrthogonal 
 setRef 
 startSolve 
PETSc-cg:  Solving for p, Initial residual = 0.0102758, Final residual = 9.98708e-05, No Iterations 427
linear solve p 1110.82 [ms]
piso step 1123.2 [ms]
 contErrors 
time step continuity errors : sum local = 1.20617e-09, global = -4.03692e-22, cumulative = 4.89101e-21
ExecutionTime = 44.35 s  ClockTime = 45 s

Time = 0.0008

Courant Number mean: 0.00617735 max: 0.0920581
DILUPBiCGStab:  Solving for Ux, Initial residual = 0.0144668, Final residual = 5.9891e-07, No Iterations 5
DILUPBiCGStab:  Solving for Uy, Initial residual = 0.020722, Final residual = 4.48333e-07, No Iterations 5
DILUPBiCGStab:  Solving for Uz, Initial residual = 0.0383892, Final residual = 1.40679e-06, No Iterations 5
linear solve U 136.609 [ms]
piso setup 22.988 [ms]
 correctNonOrthogonal 
 setRef 
 startSolve 
PETSc-cg:  Solving for p, Initial residual = 0.010404, Final residual = 9.99297e-05, No Iterations 427
linear solve p 1104.46 [ms]
piso step 1114.71 [ms]
 contErrors 
time step continuity errors : sum local = 1.22168e-09, global = 3.97967e-22, cumulative = 5.28898e-21
piso setup 21.784 [ms]
 correctNonOrthogonal 
 setRef 
 startSolve 
PETSc-cg:  Solving for p, Initial residual = 0.00907719, Final residual = 9.84317e-05, No Iterations 424
linear solve p 1093.11 [ms]
piso step 1103.38 [ms]
 contErrors 
time step continuity errors : sum local = 1.19455e-09, global = 2.05458e-22, cumulative = 5.49444e-21
ExecutionTime = 46.79 s  ClockTime = 48 s

Time = 0.000866667

Courant Number mean: 0.00640756 max: 0.0923861
DILUPBiCGStab:  Solving for Ux, Initial residual = 0.0132555, Final residual = 5.1783e-07, No Iterations 5
DILUPBiCGStab:  Solving for Uy, Initial residual = 0.018888, Final residual = 4.00369e-07, No Iterations 5
DILUPBiCGStab:  Solving for Uz, Initial residual = 0.0353373, Final residual = 1.21382e-06, No Iterations 5
linear solve U 140.472 [ms]
piso setup 22.429 [ms]
 correctNonOrthogonal 
 setRef 
 startSolve 
PETSc-cg:  Solving for p, Initial residual = 0.00932176, Final residual = 8.92885e-05, No Iterations 425
linear solve p 1098.39 [ms]
piso step 1109.47 [ms]
 contErrors 
time step continuity errors : sum local = 1.10348e-09, global = -1.3838e-23, cumulative = 5.4806e-21
piso setup 22.681 [ms]
 correctNonOrthogonal 
 setRef 
 startSolve 
PETSc-cg:  Solving for p, Initial residual = 0.00814792, Final residual = 9.76651e-05, No Iterations 420
linear solve p 1095.47 [ms]
piso step 1107.63 [ms]
 contErrors 
time step continuity errors : sum local = 1.19042e-09, global = -2.59935e-22, cumulative = 5.22067e-21
ExecutionTime = 49.23 s  ClockTime = 50 s

Time = 0.000933333

Courant Number mean: 0.00662382 max: 0.0926725
DILUPBiCGStab:  Solving for Ux, Initial residual = 0.0122271, Final residual = 4.53891e-07, No Iterations 5
DILUPBiCGStab:  Solving for Uy, Initial residual = 0.0173444, Final residual = 3.6198e-07, No Iterations 5
DILUPBiCGStab:  Solving for Uz, Initial residual = 0.0327199, Final residual = 1.04792e-06, No Iterations 5
linear solve U 143.006 [ms]
piso setup 24.35 [ms]
 correctNonOrthogonal 
 setRef 
 startSolve 
PETSc-cg:  Solving for p, Initial residual = 0.00835649, Final residual = 9.70634e-05, No Iterations 421
linear solve p 1094.37 [ms]
piso step 1106.02 [ms]
 contErrors 
time step continuity errors : sum local = 1.19528e-09, global = 5.88008e-22, cumulative = 5.80867e-21
piso setup 24.404 [ms]
 correctNonOrthogonal 
 setRef 
 startSolve 
PETSc-cg:  Solving for p, Initial residual = 0.0073242, Final residual = 9.56554e-05, No Iterations 417
linear solve p 1080.21 [ms]
piso step 1090.82 [ms]
 contErrors 
time step continuity errors : sum local = 1.17114e-09, global = -3.50049e-22, cumulative = 5.45862e-21
ExecutionTime = 51.65 s  ClockTime = 53 s

Time = 0.001

Courant Number mean: 0.00682868 max: 0.0929255
DILUPBiCGStab:  Solving for Ux, Initial residual = 0.0113437, Final residual = 4.02984e-07, No Iterations 5
DILUPBiCGStab:  Solving for Uy, Initial residual = 0.0160273, Final residual = 3.30749e-07, No Iterations 5
DILUPBiCGStab:  Solving for Uz, Initial residual = 0.0304531, Final residual = 9.10414e-07, No Iterations 5
linear solve U 142.416 [ms]
piso setup 23.585 [ms]
 correctNonOrthogonal 
 setRef 
 startSolve 
PETSc-cg:  Solving for p, Initial residual = 0.00760653, Final residual = 9.78905e-05, No Iterations 418
linear solve p 1089.04 [ms]
piso step 1101.24 [ms]
 contErrors 
time step continuity errors : sum local = 1.20778e-09, global = -5.66274e-22, cumulative = 4.89235e-21
piso setup 23.661 [ms]
 correctNonOrthogonal 
 setRef 
 startSolve 
PETSc-cg:  Solving for p, Initial residual = 0.00668192, Final residual = 9.64462e-05, No Iterations 412
linear solve p 1068.21 [ms]
piso step 1079.42 [ms]
 contErrors 
time step continuity errors : sum local = 1.18383e-09, global = 2.06747e-22, cumulative = 5.0991e-21
ExecutionTime = 54.06 s  ClockTime = 55 s

Time = 0.00106667

Courant Number mean: 0.00702348 max: 0.093151
DILUPBiCGStab:  Solving for Ux, Initial residual = 0.010576, Final residual = 3.62667e-07, No Iterations 5
DILUPBiCGStab:  Solving for Uy, Initial residual = 0.0148905, Final residual = 3.04808e-07, No Iterations 5
DILUPBiCGStab:  Solving for Uz, Initial residual = 0.0284688, Final residual = 7.97678e-07, No Iterations 5
linear solve U 141.32 [ms]
piso setup 23.477 [ms]
 correctNonOrthogonal 
 setRef 
 startSolve 
PETSc-cg:  Solving for p, Initial residual = 0.00695733, Final residual = 9.98947e-05, No Iterations 416
linear solve p 1076.62 [ms]
piso step 1087.87 [ms]
 contErrors 
time step continuity errors : sum local = 1.23327e-09, global = -3.97185e-23, cumulative = 5.05938e-21
piso setup 22.386 [ms]
 correctNonOrthogonal 
 setRef 
 startSolve 
PETSc-cg:  Solving for p, Initial residual = 0.00611368, Final residual = 9.56626e-05, No Iterations 410
linear solve p 1057.43 [ms]
piso step 1067.75 [ms]
 contErrors 
time step continuity errors : sum local = 1.17792e-09, global = -1.27855e-22, cumulative = 4.93152e-21
ExecutionTime = 56.43 s  ClockTime = 58 s

Time = 0.00113333

Courant Number mean: 0.00720866 max: 0.0933538
DILUPBiCGStab:  Solving for Ux, Initial residual = 0.00990237, Final residual = 3.29711e-07, No Iterations 5
DILUPBiCGStab:  Solving for Uy, Initial residual = 0.0138992, Final residual = 2.82949e-07, No Iterations 5
DILUPBiCGStab:  Solving for Uz, Initial residual = 0.026718, Final residual = 7.05363e-07, No Iterations 5
linear solve U 138.67 [ms]
piso setup 23.017 [ms]
 correctNonOrthogonal 
 setRef 
 startSolve 
PETSc-cg:  Solving for p, Initial residual = 0.00635459, Final residual = 9.94781e-05, No Iterations 411
linear solve p 1070.49 [ms]
piso step 1080.58 [ms]
 contErrors 
time step continuity errors : sum local = 1.23083e-09, global = 2.71136e-22, cumulative = 5.20266e-21
piso setup 22.939 [ms]
 correctNonOrthogonal 
 setRef 
 startSolve 
PETSc-cg:  Solving for p, Initial residual = 0.00560526, Final residual = 9.78054e-05, No Iterations 405
linear solve p 1048.23 [ms]
piso step 1059.24 [ms]
 contErrors 
time step continuity errors : sum local = 1.20548e-09, global = 9.48845e-23, cumulative = 5.29755e-21
ExecutionTime = 58.78 s  ClockTime = 60 s

Time = 0.0012

Courant Number mean: 0.00738517 max: 0.0935373
DILUPBiCGStab:  Solving for Ux, Initial residual = 0.00930647, Final residual = 3.02032e-07, No Iterations 5
DILUPBiCGStab:  Solving for Uy, Initial residual = 0.0130275, Final residual = 2.64264e-07, No Iterations 5
DILUPBiCGStab:  Solving for Uz, Initial residual = 0.0251622, Final residual = 6.30616e-07, No Iterations 5
linear solve U 137.854 [ms]
piso setup 22.474 [ms]
 correctNonOrthogonal 
 setRef 
 startSolve 
PETSc-cg:  Solving for p, Initial residual = 0.00593335, Final residual = 9.56904e-05, No Iterations 411
linear solve p 1065.18 [ms]
piso step 1075.6 [ms]
 contErrors 
time step continuity errors : sum local = 1.18924e-09, global = -2.80552e-23, cumulative = 5.26949e-21
piso setup 24.071 [ms]
 correctNonOrthogonal 
 setRef 
 startSolve 
PETSc-cg:  Solving for p, Initial residual = 0.00522051, Final residual = 9.7142e-05, No Iterations 403
linear solve p 1044.32 [ms]
piso step 1055.19 [ms]
 contErrors 
time step continuity errors : sum local = 1.20048e-09, global = 2.15605e-22, cumulative = 5.48509e-21
ExecutionTime = 61.14 s  ClockTime = 62 s

Time = 0.00126667

Courant Number mean: 0.00755472 max: 0.0937044
DILUPBiCGStab:  Solving for Ux, Initial residual = 0.00877654, Final residual = 2.78497e-07, No Iterations 5
DILUPBiCGStab:  Solving for Uy, Initial residual = 0.0122548, Final residual = 2.48147e-07, No Iterations 5
DILUPBiCGStab:  Solving for Uz, Initial residual = 0.0237705, Final residual = 5.68878e-07, No Iterations 5
linear solve U 136.39 [ms]
piso setup 22.416 [ms]
 correctNonOrthogonal 
 setRef 
 startSolve 
PETSc-cg:  Solving for p, Initial residual = 0.00544407, Final residual = 9.8404e-05, No Iterations 405
linear solve p 1049.33 [ms]
piso step 1059.55 [ms]
 contErrors 
time step continuity errors : sum local = 1.22245e-09, global = -5.97803e-22, cumulative = 4.88729e-21
piso setup 24.273 [ms]
 correctNonOrthogonal 
 setRef 
 startSolve 
PETSc-cg:  Solving for p, Initial residual = 0.00481045, Final residual = 9.16116e-05, No Iterations 401
linear solve p 1051.68 [ms]
piso step 1062.43 [ms]
 contErrors 
time step continuity errors : sum local = 1.13876e-09, global = 5.55803e-22, cumulative = 5.44309e-21
ExecutionTime = 63.48 s  ClockTime = 65 s

Time = 0.00133333

Courant Number mean: 0.00771733 max: 0.0938574
DILUPBiCGStab:  Solving for Ux, Initial residual = 0.00829975, Final residual = 2.58194e-07, No Iterations 5
DILUPBiCGStab:  Solving for Uy, Initial residual = 0.0115654, Final residual = 2.3406e-07, No Iterations 5
DILUPBiCGStab:  Solving for Uz, Initial residual = 0.0225187, Final residual = 5.1845e-07, No Iterations 5
linear solve U 139.775 [ms]
piso setup 22.694 [ms]
 correctNonOrthogonal 
 setRef 
 startSolve 
PETSc-cg:  Solving for p, Initial residual = 0.00514534, Final residual = 9.69447e-05, No Iterations 404
linear solve p 1051.86 [ms]
piso step 1064.27 [ms]
 contErrors 
time step continuity errors : sum local = 1.20752e-09, global = 8.54271e-23, cumulative = 5.52852e-21
piso setup 21.797 [ms]
 correctNonOrthogonal 
 setRef 
 startSolve 
PETSc-cg:  Solving for p, Initial residual = 0.0045534, Final residual = 9.93101e-05, No Iterations 394
linear solve p 1025.34 [ms]
piso step 1037.09 [ms]
 contErrors 
time step continuity errors : sum local = 1.23011e-09, global = -1.44515e-22, cumulative = 5.38401e-21
ExecutionTime = 65.79 s  ClockTime = 67 s

End

Finalizing PETSc
Finalising parallel run
================================================================================
hash: 1c7009df4606abd88faf330f8d0aed28
/*---------------------------------------------------------------------------*\
| =========                 |                                                 |
| \\      /  F ield         | OpenFOAM: The Open Source CFD Toolbox           |
|  \\    /   O peration     | Version:  v2106                                 |
|   \\  /    A nd           | Website:  www.openfoam.com                      |
|    \\/     M anipulation  |                                                 |
\*---------------------------------------------------------------------------*/
Build  : f815a12bba-20210902 OPENFOAM=2106
Arch   : "LSB;label=32;scalar=64"
Exec   : icoFoam -parallel
Date   : Sep 28 2022
Time   : 10:13:40
Host   : nla-gpu2.ianm.kit.edu
PID    : 1055631
I/O    : uncollated
Case   : /home/greole/data/code/ogl_labbook/lidDrivenCavity/single_node/mesh/200/matrix_solver/CG_NoPrecond_PETSC_HIP/mpiRank_of/32/base
nProcs : 32
Hosts  :
(
    (nla-gpu2.ianm.kit.edu 32)
)
Pstream initialized with:
    floatTransfer      : 0
    nProcsSimpleSum    : 0
    commsType          : nonBlocking
    polling iterations : 0
trapFpe: Floating point exception trapping enabled (FOAM_SIGFPE).
fileModificationChecking : Monitoring run-time modified files using timeStampMaster (fileModificationSkew 5, maxFileModificationPolls 20)
allowSystemOperations : Allowing user-supplied system call operations

// * * * * * * * * * * * * * * * * * * * * * * * * * * * * * * * * * * * * * //
Create time

Create mesh for time = 0


PISO: Operating solver in PISO mode

Reading transportProperties

Reading field p

Reading field U

Reading/calculating face flux field phi


Starting time loop

Time = 5e-05

Courant Number mean: 0 max: 0
DILUPBiCGStab:  Solving for Ux, Initial residual = 1, Final residual = 0.000121814, No Iterations 5
DILUPBiCGStab:  Solving for Uy:  solution singularity
DILUPBiCGStab:  Solving for Uz:  solution singularity
linear solve U 258.386 [ms]
piso setup 116.882 [ms]
 correctNonOrthogonal 
 setRef 
 startSolve 
Initializing PETSc
PETSc-cg:  Solving for p, Initial residual = 1, Final residual = 9.94853e-05, No Iterations 1614
linear solve p 22660.5 [ms]
piso step 22710.6 [ms]
 contErrors 
time step continuity errors : sum local = 6.58728e-10, global = 6.62549e-23, cumulative = 6.62549e-23
piso setup 106.785 [ms]
 correctNonOrthogonal 
 setRef 
 startSolve 
PETSc-cg:  Solving for p, Initial residual = 0.645093, Final residual = 9.63659e-05, No Iterations 1587
linear solve p 21644.9 [ms]
piso step 21684.5 [ms]
 contErrors 
time step continuity errors : sum local = 9.21397e-10, global = 1.78603e-22, cumulative = 2.44857e-22
ExecutionTime = 46.18 s  ClockTime = 47 s

Time = 0.0001

Courant Number mean: 0.00156134 max: 0.0657803
DILUPBiCGStab:  Solving for Ux, Initial residual = 0.189842, Final residual = 7.89089e-05, No Iterations 5
DILUPBiCGStab:  Solving for Uy, Initial residual = 0.330054, Final residual = 7.67047e-05, No Iterations 5
DILUPBiCGStab:  Solving for Uz, Initial residual = 0.992764, Final residual = 0.000282505, No Iterations 5
linear solve U 402.482 [ms]
piso setup 85.426 [ms]
 correctNonOrthogonal 
 setRef 
 startSolve 
PETSc-cg:  Solving for p, Initial residual = 0.510327, Final residual = 9.66592e-05, No Iterations 1561
linear solve p 21271.1 [ms]
piso step 21313 [ms]
 contErrors 
time step continuity errors : sum local = 9.01019e-10, global = 4.30166e-23, cumulative = 2.87874e-22
piso setup 76.432 [ms]
 correctNonOrthogonal 
 setRef 
 startSolve 
PETSc-cg:  Solving for p, Initial residual = 0.421059, Final residual = 9.58655e-05, No Iterations 1556
linear solve p 21112.3 [ms]
piso step 21147.7 [ms]
 contErrors 
time step continuity errors : sum local = 9.21279e-10, global = 1.98129e-22, cumulative = 4.86003e-22
ExecutionTime = 89.11 s  ClockTime = 90 s

Time = 0.00015

Courant Number mean: 0.00241156 max: 0.0810516
DILUPBiCGStab:  Solving for Ux, Initial residual = 0.080351, Final residual = 2.73605e-05, No Iterations 5
DILUPBiCGStab:  Solving for Uy, Initial residual = 0.137294, Final residual = 1.74134e-05, No Iterations 5
DILUPBiCGStab:  Solving for Uz, Initial residual = 0.0914852, Final residual = 3.87403e-05, No Iterations 5
linear solve U 416.022 [ms]
piso setup 78.659 [ms]
 correctNonOrthogonal 
 setRef 
 startSolve 
PETSc-cg:  Solving for p, Initial residual = 0.252941, Final residual = 9.80999e-05, No Iterations 1526
linear solve p 20653.6 [ms]
piso step 20691 [ms]
 contErrors 
time step continuity errors : sum local = 7.05991e-10, global = 3.97241e-24, cumulative = 4.89976e-22
piso setup 73.122 [ms]
 correctNonOrthogonal 
 setRef 
 startSolve 
PETSc-cg:  Solving for p, Initial residual = 0.209329, Final residual = 9.83129e-05, No Iterations 1517
linear solve p 20563.9 [ms]
piso step 20599.4 [ms]
 contErrors 
time step continuity errors : sum local = 6.99736e-10, global = -7.46681e-23, cumulative = 4.15308e-22
ExecutionTime = 130.87 s  ClockTime = 132 s

Time = 0.0002

Courant Number mean: 0.00299652 max: 0.0859677
DILUPBiCGStab:  Solving for Ux, Initial residual = 0.0511434, Final residual = 1.34186e-05, No Iterations 5
DILUPBiCGStab:  Solving for Uy, Initial residual = 0.0858845, Final residual = 1.22913e-05, No Iterations 5
DILUPBiCGStab:  Solving for Uz, Initial residual = 0.111652, Final residual = 2.6197e-05, No Iterations 5
linear solve U 404.859 [ms]
piso setup 77.763 [ms]
 correctNonOrthogonal 
 setRef 
 startSolve 
PETSc-cg:  Solving for p, Initial residual = 0.123137, Final residual = 9.933e-05, No Iterations 1485
linear solve p 20302.6 [ms]
piso step 20334.5 [ms]
 contErrors 
time step continuity errors : sum local = 6.71923e-10, global = -1.39867e-22, cumulative = 2.7544e-22
piso setup 75.767 [ms]
 correctNonOrthogonal 
 setRef 
 startSolve 
PETSc-cg:  Solving for p, Initial residual = 0.0998339, Final residual = 9.81448e-05, No Iterations 1480
linear solve p 20040 [ms]
piso step 20074.1 [ms]
 contErrors 
time step continuity errors : sum local = 6.71316e-10, global = -1.90744e-22, cumulative = 8.46959e-23
ExecutionTime = 171.76 s  ClockTime = 173 s

Time = 0.00025

Courant Number mean: 0.00346137 max: 0.088316
DILUPBiCGStab:  Solving for Ux, Initial residual = 0.0380473, Final residual = 7.03342e-06, No Iterations 5
DILUPBiCGStab:  Solving for Uy, Initial residual = 0.0619927, Final residual = 8.69556e-06, No Iterations 5
DILUPBiCGStab:  Solving for Uz, Initial residual = 0.0916067, Final residual = 1.41422e-05, No Iterations 5
linear solve U 403.602 [ms]
piso setup 74.119 [ms]
 correctNonOrthogonal 
 setRef 
 startSolve 
PETSc-cg:  Solving for p, Initial residual = 0.0624844, Final residual = 9.71056e-05, No Iterations 715
linear solve p 9727.41 [ms]
piso step 9761.32 [ms]
 contErrors 
time step continuity errors : sum local = 6.96642e-10, global = -2.21969e-22, cumulative = -1.37273e-22
piso setup 70.124 [ms]
 correctNonOrthogonal 
 setRef 
 startSolve 
PETSc-cg:  Solving for p, Initial residual = 0.0526116, Final residual = 9.91484e-05, No Iterations 682
linear solve p 9292.37 [ms]
piso step 9327.9 [ms]
 contErrors 
time step continuity errors : sum local = 6.73958e-10, global = -1.70766e-22, cumulative = -3.08039e-22
ExecutionTime = 191.43 s  ClockTime = 193 s

Time = 0.0003

Courant Number mean: 0.00385425 max: 0.0897419
DILUPBiCGStab:  Solving for Ux, Initial residual = 0.030493, Final residual = 5.10609e-06, No Iterations 5
DILUPBiCGStab:  Solving for Uy, Initial residual = 0.048605, Final residual = 5.49581e-06, No Iterations 5
DILUPBiCGStab:  Solving for Uz, Initial residual = 0.0778257, Final residual = 9.69466e-06, No Iterations 5
linear solve U 414.309 [ms]
piso setup 73.37 [ms]
 correctNonOrthogonal 
 setRef 
 startSolve 
PETSc-cg:  Solving for p, Initial residual = 0.0397255, Final residual = 9.97686e-05, No Iterations 652
linear solve p 8869.4 [ms]
piso step 8898.6 [ms]
 contErrors 
time step continuity errors : sum local = 6.7275e-10, global = -3.71856e-22, cumulative = -6.79896e-22
piso setup 69.039 [ms]
 correctNonOrthogonal 
 setRef 
 startSolve 
PETSc-cg:  Solving for p, Initial residual = 0.0336514, Final residual = 9.95693e-05, No Iterations 642
linear solve p 8798.01 [ms]
piso step 8830.93 [ms]
 contErrors 
time step continuity errors : sum local = 6.66616e-10, global = 3.23169e-23, cumulative = -6.47579e-22
ExecutionTime = 209.76 s  ClockTime = 211 s

Time = 0.00035

Courant Number mean: 0.00419842 max: 0.0907273
DILUPBiCGStab:  Solving for Ux, Initial residual = 0.0255221, Final residual = 4.25794e-06, No Iterations 5
DILUPBiCGStab:  Solving for Uy, Initial residual = 0.039931, Final residual = 4.05356e-06, No Iterations 5
DILUPBiCGStab:  Solving for Uz, Initial residual = 0.0666163, Final residual = 6.73372e-06, No Iterations 5
linear solve U 406.826 [ms]
piso setup 73.148 [ms]
 correctNonOrthogonal 
 setRef 
 startSolve 
PETSc-cg:  Solving for p, Initial residual = 0.0291684, Final residual = 9.97419e-05, No Iterations 633
linear solve p 8676.14 [ms]
piso step 8707.69 [ms]
 contErrors 
time step continuity errors : sum local = 6.93952e-10, global = 3.2189e-22, cumulative = -3.25689e-22
piso setup 70.297 [ms]
 correctNonOrthogonal 
 setRef 
 startSolve 
PETSc-cg:  Solving for p, Initial residual = 0.0253426, Final residual = 9.93868e-05, No Iterations 622
linear solve p 8456.42 [ms]
piso step 8486.46 [ms]
 contErrors 
time step continuity errors : sum local = 6.73652e-10, global = -1.68458e-22, cumulative = -4.94147e-22
ExecutionTime = 227.54 s  ClockTime = 229 s

Time = 0.0004

Courant Number mean: 0.0045062 max: 0.0914618
DILUPBiCGStab:  Solving for Ux, Initial residual = 0.0219732, Final residual = 3.55195e-06, No Iterations 5
DILUPBiCGStab:  Solving for Uy, Initial residual = 0.0338792, Final residual = 2.95352e-06, No Iterations 5
DILUPBiCGStab:  Solving for Uz, Initial residual = 0.0581843, Final residual = 5.15182e-06, No Iterations 5
linear solve U 404.923 [ms]
piso setup 69.941 [ms]
 correctNonOrthogonal 
 setRef 
 startSolve 
PETSc-cg:  Solving for p, Initial residual = 0.0217488, Final residual = 9.91901e-05, No Iterations 612
linear solve p 8416.52 [ms]
piso step 8447.37 [ms]
 contErrors 
time step continuity errors : sum local = 6.76719e-10, global = -1.49522e-22, cumulative = -6.43669e-22
piso setup 68.875 [ms]
 correctNonOrthogonal 
 setRef 
 startSolve 
PETSc-cg:  Solving for p, Initial residual = 0.0192363, Final residual = 9.95654e-05, No Iterations 606
linear solve p 8250.82 [ms]
piso step 8283.92 [ms]
 contErrors 
time step continuity errors : sum local = 6.74175e-10, global = -8.25578e-23, cumulative = -7.26227e-22
ExecutionTime = 244.86 s  ClockTime = 247 s

Time = 0.00045

Courant Number mean: 0.00478564 max: 0.0920366
DILUPBiCGStab:  Solving for Ux, Initial residual = 0.0193071, Final residual = 2.96521e-06, No Iterations 5
DILUPBiCGStab:  Solving for Uy, Initial residual = 0.0293953, Final residual = 2.35145e-06, No Iterations 5
DILUPBiCGStab:  Solving for Uz, Initial residual = 0.0517684, Final residual = 4.16203e-06, No Iterations 5
linear solve U 411.524 [ms]
piso setup 71.847 [ms]
 correctNonOrthogonal 
 setRef 
 startSolve 
PETSc-cg:  Solving for p, Initial residual = 0.0181879, Final residual = 9.93385e-05, No Iterations 602
linear solve p 8206.88 [ms]
piso step 8238.1 [ms]
 contErrors 
time step continuity errors : sum local = 6.8831e-10, global = -3.39273e-24, cumulative = -7.2962e-22
piso setup 68.442 [ms]
 correctNonOrthogonal 
 setRef 
 startSolve 
PETSc-cg:  Solving for p, Initial residual = 0.0162117, Final residual = 9.88886e-05, No Iterations 595
linear solve p 8116.99 [ms]
piso step 8144.85 [ms]
 contErrors 
time step continuity errors : sum local = 6.75029e-10, global = 1.25812e-22, cumulative = -6.03808e-22
ExecutionTime = 261.85 s  ClockTime = 264 s

Time = 0.0005

Courant Number mean: 0.00504288 max: 0.0925024
DILUPBiCGStab:  Solving for Ux, Initial residual = 0.0172229, Final residual = 2.50006e-06, No Iterations 5
DILUPBiCGStab:  Solving for Uy, Initial residual = 0.0259497, Final residual = 1.91582e-06, No Iterations 5
DILUPBiCGStab:  Solving for Uz, Initial residual = 0.0464959, Final residual = 3.5099e-06, No Iterations 5
linear solve U 420.543 [ms]
piso setup 69.934 [ms]
 correctNonOrthogonal 
 setRef 
 startSolve 
PETSc-cg:  Solving for p, Initial residual = 0.0152865, Final residual = 9.89037e-05, No Iterations 593
linear solve p 8088.31 [ms]
piso step 8119.59 [ms]
 contErrors 
time step continuity errors : sum local = 6.80482e-10, global = -2.62177e-23, cumulative = -6.30026e-22
piso setup 67.931 [ms]
 correctNonOrthogonal 
 setRef 
 startSolve 
PETSc-cg:  Solving for p, Initial residual = 0.0137129, Final residual = 9.69424e-05, No Iterations 588
linear solve p 8031.59 [ms]
piso step 8061.22 [ms]
 contErrors 
time step continuity errors : sum local = 6.63017e-10, global = 6.92764e-24, cumulative = -6.23098e-22
ExecutionTime = 278.62 s  ClockTime = 281 s

Time = 0.00055

Courant Number mean: 0.0052811 max: 0.0928898
DILUPBiCGStab:  Solving for Ux, Initial residual = 0.0155462, Final residual = 2.13411e-06, No Iterations 5
DILUPBiCGStab:  Solving for Uy, Initial residual = 0.0232132, Final residual = 1.63409e-06, No Iterations 5
DILUPBiCGStab:  Solving for Uz, Initial residual = 0.0422299, Final residual = 3.11004e-06, No Iterations 5
linear solve U 410.109 [ms]
piso setup 69.786 [ms]
 correctNonOrthogonal 
 setRef 
 startSolve 
PETSc-cg:  Solving for p, Initial residual = 0.0133057, Final residual = 9.81558e-05, No Iterations 586
linear solve p 8006.34 [ms]
piso step 8035.78 [ms]
 contErrors 
time step continuity errors : sum local = 6.81154e-10, global = -1.85681e-22, cumulative = -8.08779e-22
piso setup 69.817 [ms]
 correctNonOrthogonal 
 setRef 
 startSolve 
PETSc-cg:  Solving for p, Initial residual = 0.0119697, Final residual = 9.91667e-05, No Iterations 580
linear solve p 7901.52 [ms]
piso step 7935.17 [ms]
 contErrors 
time step continuity errors : sum local = 6.81124e-10, global = -3.40824e-23, cumulative = -8.42862e-22
ExecutionTime = 295.19 s  ClockTime = 297 s

Time = 0.0006

Courant Number mean: 0.00550384 max: 0.0932185
DILUPBiCGStab:  Solving for Ux, Initial residual = 0.0141659, Final residual = 1.84435e-06, No Iterations 5
DILUPBiCGStab:  Solving for Uy, Initial residual = 0.0209907, Final residual = 1.4219e-06, No Iterations 5
DILUPBiCGStab:  Solving for Uz, Initial residual = 0.0386239, Final residual = 2.80213e-06, No Iterations 5
linear solve U 405.961 [ms]
piso setup 69.991 [ms]
 correctNonOrthogonal 
 setRef 
 startSolve 
PETSc-cg:  Solving for p, Initial residual = 0.011745, Final residual = 9.82291e-05, No Iterations 581
linear solve p 7966.31 [ms]
piso step 7996.37 [ms]
 contErrors 
time step continuity errors : sum local = 6.79912e-10, global = 1.30327e-22, cumulative = -7.12534e-22
piso setup 71.226 [ms]
 correctNonOrthogonal 
 setRef 
 startSolve 
PETSc-cg:  Solving for p, Initial residual = 0.010601, Final residual = 9.81156e-05, No Iterations 576
linear solve p 7857.64 [ms]
piso step 7888.73 [ms]
 contErrors 
time step continuity errors : sum local = 6.75349e-10, global = 2.31913e-22, cumulative = -4.80621e-22
ExecutionTime = 311.68 s  ClockTime = 314 s

Time = 0.00065

Courant Number mean: 0.00571303 max: 0.093502
DILUPBiCGStab:  Solving for Ux, Initial residual = 0.0130114, Final residual = 1.61166e-06, No Iterations 5
DILUPBiCGStab:  Solving for Uy, Initial residual = 0.0191479, Final residual = 1.2597e-06, No Iterations 5
DILUPBiCGStab:  Solving for Uz, Initial residual = 0.0355947, Final residual = 2.59388e-06, No Iterations 5
linear solve U 403.67 [ms]
piso setup 71.72 [ms]
 correctNonOrthogonal 
 setRef 
 startSolve 
PETSc-cg:  Solving for p, Initial residual = 0.0104541, Final residual = 9.6115e-05, No Iterations 577
linear solve p 7916.24 [ms]
piso step 7946.08 [ms]
 contErrors 
time step continuity errors : sum local = 6.69247e-10, global = -2.89875e-23, cumulative = -5.09609e-22
piso setup 69.311 [ms]
 correctNonOrthogonal 
 setRef 
 startSolve 
PETSc-cg:  Solving for p, Initial residual = 0.00945969, Final residual = 9.7301e-05, No Iterations 571
linear solve p 7812.62 [ms]
piso step 7843.2 [ms]
 contErrors 
time step continuity errors : sum local = 6.723e-10, global = -3.60341e-22, cumulative = -8.69949e-22
ExecutionTime = 328.07 s  ClockTime = 331 s

Time = 0.0007

Courant Number mean: 0.00591026 max: 0.0937498
DILUPBiCGStab:  Solving for Ux, Initial residual = 0.0120286, Final residual = 1.42284e-06, No Iterations 5
DILUPBiCGStab:  Solving for Uy, Initial residual = 0.0175965, Final residual = 1.13045e-06, No Iterations 5
DILUPBiCGStab:  Solving for Uz, Initial residual = 0.0329764, Final residual = 2.41064e-06, No Iterations 5
linear solve U 406.271 [ms]
piso setup 69.67 [ms]
 correctNonOrthogonal 
 setRef 
 startSolve 
PETSc-cg:  Solving for p, Initial residual = 0.00942581, Final residual = 9.85435e-05, No Iterations 572
linear solve p 7838.83 [ms]
piso step 7869.26 [ms]
 contErrors 
time step continuity errors : sum local = 6.84875e-10, global = -1.79007e-22, cumulative = -1.04896e-21
piso setup 68.994 [ms]
 correctNonOrthogonal 
 setRef 
 startSolve 
PETSc-cg:  Solving for p, Initial residual = 0.00854303, Final residual = 9.84291e-05, No Iterations 566
linear solve p 7706.76 [ms]
piso step 7735.77 [ms]
 contErrors 
time step continuity errors : sum local = 6.80935e-10, global = 2.33529e-22, cumulative = -8.15428e-22
ExecutionTime = 344.26 s  ClockTime = 347 s

Time = 0.00075

Courant Number mean: 0.00609754 max: 0.0939687
DILUPBiCGStab:  Solving for Ux, Initial residual = 0.011182, Final residual = 1.26756e-06, No Iterations 5
DILUPBiCGStab:  Solving for Uy, Initial residual = 0.0162717, Final residual = 1.02605e-06, No Iterations 5
DILUPBiCGStab:  Solving for Uz, Initial residual = 0.0307207, Final residual = 2.27519e-06, No Iterations 5
linear solve U 405.927 [ms]
piso setup 69.519 [ms]
 correctNonOrthogonal 
 setRef 
 startSolve 
PETSc-cg:  Solving for p, Initial residual = 0.0085843, Final residual = 9.95474e-05, No Iterations 568
linear solve p 7749.26 [ms]
piso step 7781.84 [ms]
 contErrors 
time step continuity errors : sum local = 6.93929e-10, global = -3.31529e-22, cumulative = -1.14696e-21
piso setup 69.272 [ms]
 correctNonOrthogonal 
 setRef 
 startSolve 
PETSc-cg:  Solving for p, Initial residual = 0.00779464, Final residual = 9.94378e-05, No Iterations 562
linear solve p 7677.9 [ms]
piso step 7707.12 [ms]
 contErrors 
time step continuity errors : sum local = 6.89466e-10, global = -9.66819e-23, cumulative = -1.24364e-21
ExecutionTime = 360.34 s  ClockTime = 363 s

Time = 0.0008

Courant Number mean: 0.0062753 max: 0.094164
DILUPBiCGStab:  Solving for Ux, Initial residual = 0.0104455, Final residual = 1.13856e-06, No Iterations 5
DILUPBiCGStab:  Solving for Uy, Initial residual = 0.015128, Final residual = 9.4005e-07, No Iterations 5
DILUPBiCGStab:  Solving for Uz, Initial residual = 0.0287357, Final residual = 2.14307e-06, No Iterations 5
linear solve U 413.768 [ms]
piso setup 69.382 [ms]
 correctNonOrthogonal 
 setRef 
 startSolve 
PETSc-cg:  Solving for p, Initial residual = 0.00783644, Final residual = 9.76726e-05, No Iterations 565
linear solve p 7725.05 [ms]
piso step 7754.97 [ms]
 contErrors 
time step continuity errors : sum local = 6.81377e-10, global = -1.00562e-22, cumulative = -1.3442e-21
piso setup 67.566 [ms]
 correctNonOrthogonal 
 setRef 
 startSolve 
PETSc-cg:  Solving for p, Initial residual = 0.00712143, Final residual = 9.67109e-05, No Iterations 559
linear solve p 7603.58 [ms]
piso step 7632.41 [ms]
 contErrors 
time step continuity errors : sum local = 6.72283e-10, global = -3.7386e-23, cumulative = -1.38159e-21
ExecutionTime = 376.32 s  ClockTime = 379 s

Time = 0.00085

Courant Number mean: 0.00644506 max: 0.0943396
DILUPBiCGStab:  Solving for Ux, Initial residual = 0.00979762, Final residual = 1.02999e-06, No Iterations 5
DILUPBiCGStab:  Solving for Uy, Initial residual = 0.0141301, Final residual = 8.67901e-07, No Iterations 5
DILUPBiCGStab:  Solving for Uz, Initial residual = 0.0269924, Final residual = 2.03492e-06, No Iterations 5
linear solve U 405.592 [ms]
piso setup 69.701 [ms]
 correctNonOrthogonal 
 setRef 
 startSolve 
PETSc-cg:  Solving for p, Initial residual = 0.00719823, Final residual = 9.89712e-05, No Iterations 560
linear solve p 7659.31 [ms]
piso step 7689.54 [ms]
 contErrors 
time step continuity errors : sum local = 6.91856e-10, global = -2.24631e-23, cumulative = -1.40405e-21
piso setup 69.354 [ms]
 correctNonOrthogonal 
 setRef 
 startSolve 
PETSc-cg:  Solving for p, Initial residual = 0.00655614, Final residual = 9.92331e-05, No Iterations 555
linear solve p 7600.33 [ms]
piso step 7629.58 [ms]
 contErrors 
time step continuity errors : sum local = 6.9058e-10, global = -1.7978e-22, cumulative = -1.58383e-21
ExecutionTime = 392.23 s  ClockTime = 395 s

Time = 0.0009

Courant Number mean: 0.00660761 max: 0.0944985
DILUPBiCGStab:  Solving for Ux, Initial residual = 0.00922459, Final residual = 9.37781e-07, No Iterations 5
DILUPBiCGStab:  Solving for Uy, Initial residual = 0.0132524, Final residual = 8.06393e-07, No Iterations 5
DILUPBiCGStab:  Solving for Uz, Initial residual = 0.0254366, Final residual = 1.92358e-06, No Iterations 5
linear solve U 406.235 [ms]
piso setup 69.436 [ms]
 correctNonOrthogonal 
 setRef 
 startSolve 
PETSc-cg:  Solving for p, Initial residual = 0.00670728, Final residual = 9.83328e-05, No Iterations 558
linear solve p 7623.12 [ms]
piso step 7655.12 [ms]
 contErrors 
time step continuity errors : sum local = 6.87705e-10, global = -2.51023e-22, cumulative = -1.83485e-21
piso setup 68.274 [ms]
 correctNonOrthogonal 
 setRef 
 startSolve 
PETSc-cg:  Solving for p, Initial residual = 0.00611004, Final residual = 9.93762e-05, No Iterations 550
linear solve p 7486.8 [ms]
piso step 7515.19 [ms]
 contErrors 
time step continuity errors : sum local = 6.92423e-10, global = 2.53446e-22, cumulative = -1.58141e-21
ExecutionTime = 408 s  ClockTime = 411 s

Time = 0.00095

Courant Number mean: 0.00676316 max: 0.0946434
DILUPBiCGStab:  Solving for Ux, Initial residual = 0.00871227, Final residual = 8.58856e-07, No Iterations 5
DILUPBiCGStab:  Solving for Uy, Initial residual = 0.012474, Final residual = 7.53418e-07, No Iterations 5
DILUPBiCGStab:  Solving for Uz, Initial residual = 0.0240506, Final residual = 1.8258e-06, No Iterations 5
linear solve U 416.149 [ms]
piso setup 69.156 [ms]
 correctNonOrthogonal 
 setRef 
 startSolve 
PETSc-cg:  Solving for p, Initial residual = 0.00619749, Final residual = 9.90192e-05, No Iterations 553
linear solve p 7522.14 [ms]
piso step 7550.56 [ms]
 contErrors 
time step continuity errors : sum local = 6.93832e-10, global = -1.83288e-22, cumulative = -1.7647e-21
piso setup 68.925 [ms]
 correctNonOrthogonal 
 setRef 
 startSolve 
PETSc-cg:  Solving for p, Initial residual = 0.00564853, Final residual = 9.68053e-05, No Iterations 547
linear solve p 7446.69 [ms]
piso step 7474.47 [ms]
 contErrors 
time step continuity errors : sum local = 6.76435e-10, global = -5.7351e-22, cumulative = -2.33821e-21
ExecutionTime = 423.62 s  ClockTime = 427 s

Time = 0.001

Courant Number mean: 0.00691274 max: 0.0947761
DILUPBiCGStab:  Solving for Ux, Initial residual = 0.00825341, Final residual = 7.90736e-07, No Iterations 5
DILUPBiCGStab:  Solving for Uy, Initial residual = 0.0117794, Final residual = 7.07253e-07, No Iterations 5
DILUPBiCGStab:  Solving for Uz, Initial residual = 0.0227985, Final residual = 1.72561e-06, No Iterations 5
linear solve U 414.027 [ms]
piso setup 70.197 [ms]
 correctNonOrthogonal 
 setRef 
 startSolve 
PETSc-cg:  Solving for p, Initial residual = 0.00580585, Final residual = 9.7832e-05, No Iterations 552
linear solve p 7557.41 [ms]
piso step 7587.53 [ms]
 contErrors 
time step continuity errors : sum local = 6.85941e-10, global = -4.1114e-22, cumulative = -2.74935e-21
piso setup 68.809 [ms]
 correctNonOrthogonal 
 setRef 
 startSolve 
PETSc-cg:  Solving for p, Initial residual = 0.00529228, Final residual = 9.90811e-05, No Iterations 544
linear solve p 7430.43 [ms]
piso step 7459.08 [ms]
 contErrors 
time step continuity errors : sum local = 6.92385e-10, global = -1.06582e-22, cumulative = -2.85593e-21
ExecutionTime = 439.28 s  ClockTime = 442 s

End

Finalizing PETSc
Finalising parallel run
================================================================================
hash: 5bea9284486531ace99053e76f50ac81
/*---------------------------------------------------------------------------*\
| =========                 |                                                 |
| \\      /  F ield         | OpenFOAM: The Open Source CFD Toolbox           |
|  \\    /   O peration     | Version:  v2106                                 |
|   \\  /    A nd           | Website:  www.openfoam.com                      |
|    \\/     M anipulation  |                                                 |
\*---------------------------------------------------------------------------*/
Build  : f815a12bba-20210902 OPENFOAM=2106
Arch   : "LSB;label=32;scalar=64"
Exec   : icoFoam -parallel
Date   : Sep 28 2022
Time   : 10:21:06
Host   : nla-gpu2.ianm.kit.edu
PID    : 1055930
I/O    : uncollated
Case   : /home/greole/data/code/ogl_labbook/lidDrivenCavity/single_node/mesh/250/matrix_solver/CG_NoPrecond_PETSC_HIP/mpiRank_of/32/base
nProcs : 32
Hosts  :
(
    (nla-gpu2.ianm.kit.edu 32)
)
Pstream initialized with:
    floatTransfer      : 0
    nProcsSimpleSum    : 0
    commsType          : nonBlocking
    polling iterations : 0
trapFpe: Floating point exception trapping enabled (FOAM_SIGFPE).
fileModificationChecking : Monitoring run-time modified files using timeStampMaster (fileModificationSkew 5, maxFileModificationPolls 20)
allowSystemOperations : Allowing user-supplied system call operations

// * * * * * * * * * * * * * * * * * * * * * * * * * * * * * * * * * * * * * //
Create time

Create mesh for time = 0


PISO: Operating solver in PISO mode

Reading transportProperties

Reading field p

Reading field U

Reading/calculating face flux field phi


Starting time loop

Time = 4e-05

Courant Number mean: 0 max: 0
DILUPBiCGStab:  Solving for Ux, Initial residual = 1, Final residual = 0.000308425, No Iterations 5
DILUPBiCGStab:  Solving for Uy:  solution singularity
DILUPBiCGStab:  Solving for Uz:  solution singularity
linear solve U 505.344 [ms]
piso setup 190.707 [ms]
 correctNonOrthogonal 
 setRef 
 startSolve 
Initializing PETSc
PETSc-cg:  Solving for p, Initial residual = 1, Final residual = 9.97596e-05, No Iterations 2024
linear solve p 33184.5 [ms]
piso step 33262.2 [ms]
 contErrors 
time step continuity errors : sum local = 4.79497e-10, global = -2.30169e-22, cumulative = -2.30169e-22
piso setup 177.718 [ms]
 correctNonOrthogonal 
 setRef 
 startSolve 
PETSc-cg:  Solving for p, Initial residual = 0.670098, Final residual = 9.93748e-05, No Iterations 1990
linear solve p 32054.2 [ms]
piso step 32126 [ms]
 contErrors 
time step continuity errors : sum local = 6.73794e-10, global = -3.29125e-23, cumulative = -2.63081e-22
ExecutionTime = 68.68 s  ClockTime = 69 s

Time = 8e-05

Courant Number mean: 0.00142678 max: 0.0690571
DILUPBiCGStab:  Solving for Ux, Initial residual = 0.180318, Final residual = 0.000194586, No Iterations 5
DILUPBiCGStab:  Solving for Uy, Initial residual = 0.336114, Final residual = 0.000175745, No Iterations 5
DILUPBiCGStab:  Solving for Uz, Initial residual = 0.993925, Final residual = 0.000713631, No Iterations 5
linear solve U 871.248 [ms]
piso setup 164.96 [ms]
 correctNonOrthogonal 
 setRef 
 startSolve 
PETSc-cg:  Solving for p, Initial residual = 0.557769, Final residual = 9.82229e-05, No Iterations 1960
linear solve p 31516.7 [ms]
piso step 31586.1 [ms]
 contErrors 
time step continuity errors : sum local = 6.6318e-10, global = -3.41228e-22, cumulative = -6.04309e-22
piso setup 151.665 [ms]
 correctNonOrthogonal 
 setRef 
 startSolve 
PETSc-cg:  Solving for p, Initial residual = 0.474204, Final residual = 9.67733e-05, No Iterations 1955
linear solve p 31424.8 [ms]
piso step 31487.3 [ms]
 contErrors 
time step continuity errors : sum local = 6.70754e-10, global = 7.56658e-23, cumulative = -5.28643e-22
ExecutionTime = 132.79 s  ClockTime = 134 s

Time = 0.00012

Courant Number mean: 0.00219263 max: 0.0832409
DILUPBiCGStab:  Solving for Ux, Initial residual = 0.0755123, Final residual = 6.31659e-05, No Iterations 5
DILUPBiCGStab:  Solving for Uy, Initial residual = 0.137005, Final residual = 4.35382e-05, No Iterations 5
DILUPBiCGStab:  Solving for Uz, Initial residual = 0.101226, Final residual = 9.32613e-05, No Iterations 5
linear solve U 866.758 [ms]
piso setup 154.763 [ms]
 correctNonOrthogonal 
 setRef 
 startSolve 
PETSc-cg:  Solving for p, Initial residual = 0.343023, Final residual = 9.86265e-05, No Iterations 1910
linear solve p 30655.8 [ms]
piso step 30719.5 [ms]
 contErrors 
time step continuity errors : sum local = 4.90346e-10, global = -2.47548e-22, cumulative = -7.76191e-22
piso setup 144.09 [ms]
 correctNonOrthogonal 
 setRef 
 startSolve 
PETSc-cg:  Solving for p, Initial residual = 0.291288, Final residual = 9.82179e-05, No Iterations 1903
linear solve p 30579.7 [ms]
piso step 30641.4 [ms]
 contErrors 
time step continuity errors : sum local = 4.80232e-10, global = 1.26774e-22, cumulative = -6.49418e-22
ExecutionTime = 195.19 s  ClockTime = 196 s

Time = 0.00016

Courant Number mean: 0.00272143 max: 0.0875666
DILUPBiCGStab:  Solving for Ux, Initial residual = 0.0486533, Final residual = 3.08216e-05, No Iterations 5
DILUPBiCGStab:  Solving for Uy, Initial residual = 0.0859787, Final residual = 2.4595e-05, No Iterations 5
DILUPBiCGStab:  Solving for Uz, Initial residual = 0.111109, Final residual = 6.6914e-05, No Iterations 5
linear solve U 869.243 [ms]
piso setup 150.671 [ms]
 correctNonOrthogonal 
 setRef 
 startSolve 
PETSc-cg:  Solving for p, Initial residual = 0.163776, Final residual = 9.83804e-05, No Iterations 1872
linear solve p 30122.9 [ms]
piso step 30187.5 [ms]
 contErrors 
time step continuity errors : sum local = 4.5277e-10, global = -2.60886e-22, cumulative = -9.10304e-22
piso setup 144.643 [ms]
 correctNonOrthogonal 
 setRef 
 startSolve 
PETSc-cg:  Solving for p, Initial residual = 0.1342, Final residual = 9.81172e-05, No Iterations 1863
linear solve p 29961.5 [ms]
piso step 30021.4 [ms]
 contErrors 
time step continuity errors : sum local = 4.55894e-10, global = -8.66685e-23, cumulative = -9.96972e-22
ExecutionTime = 256.43 s  ClockTime = 258 s

Time = 0.0002

Courant Number mean: 0.00314451 max: 0.0896317
DILUPBiCGStab:  Solving for Ux, Initial residual = 0.036503, Final residual = 1.48441e-05, No Iterations 5
DILUPBiCGStab:  Solving for Uy, Initial residual = 0.0622278, Final residual = 1.81109e-05, No Iterations 5
DILUPBiCGStab:  Solving for Uz, Initial residual = 0.0908575, Final residual = 3.64734e-05, No Iterations 5
linear solve U 870.839 [ms]
piso setup 150.639 [ms]
 correctNonOrthogonal 
 setRef 
 startSolve 
PETSc-cg:  Solving for p, Initial residual = 0.0864162, Final residual = 9.72471e-05, No Iterations 894
linear solve p 14432.5 [ms]
piso step 14496.5 [ms]
 contErrors 
[...]
piso setup 405.139 [ms]
 correctNonOrthogonal 
 setRef 
 startSolve 
PETSc-cg:  Solving for p, Initial residual = 0.440242, Final residual = 9.90046e-05, No Iterations 2727
linear solve p 131740 [ms]
piso step 131897 [ms]
 contErrors 
time step continuity errors : sum local = 2.95675e-10, global = 3.28345e-23, cumulative = 2.17758e-24
ExecutionTime = 820.13 s  ClockTime = 824 s

Time = 0.000114286

Courant Number mean: 0.00234497 max: 0.08961
DILUPBiCGStab:  Solving for Ux, Initial residual = 0.0450696, Final residual = 7.94969e-05, No Iterations 5
DILUPBiCGStab:  Solving for Uy, Initial residual = 0.0866133, Final residual = 6.6279e-05, No Iterations 5
DILUPBiCGStab:  Solving for Uz, Initial residual = 0.12284, Final residual = 0.000238762, No Iterations 5
linear solve U 2530.02 [ms]
piso setup 409.844 [ms]
 correctNonOrthogonal 
 setRef 
 startSolve 
PETSc-cg:  Solving for p, Initial residual = 0.268737, Final residual = 9.83908e-05, No Iterations 1299
linear solve p 62914.4 [ms]
piso step 63073.1 [ms]
 contErrors 
time step continuity errors : sum local = 2.81574e-10, global = -9.21494e-23, cumulative = -8.99718e-23
piso setup 405.987 [ms]
 correctNonOrthogonal 
 setRef 
 startSolve 
PETSc-cg:  Solving for p, Initial residual = 0.221619, Final residual = 9.9721e-05, No Iterations 1279
linear solve p 61896.9 [ms]
piso step 62052.4 [ms]
 contErrors 
time step continuity errors : sum local = 2.72464e-10, global = 2.1006e-23, cumulative = -6.89659e-23
ExecutionTime = 948.7 s  ClockTime = 954 s

Time = 0.000142857

Courant Number mean: 0.00271125 max: 0.0913194
DILUPBiCGStab:  Solving for Ux, Initial residual = 0.0341674, Final residual = 4.71949e-05, No Iterations 5
DILUPBiCGStab:  Solving for Uy, Initial residual = 0.0627492, Final residual = 4.10126e-05, No Iterations 5
DILUPBiCGStab:  Solving for Uz, Initial residual = 0.0928165, Final residual = 0.000155855, No Iterations 5
linear solve U 2495.2 [ms]
piso setup 410.151 [ms]
 correctNonOrthogonal 
 setRef 
 startSolve 
PETSc-cg:  Solving for p, Initial residual = 0.167701, Final residual = 9.91421e-05, No Iterations 1254
linear solve p 60666.5 [ms]
piso step 60824.1 [ms]
 contErrors 
time step continuity errors : sum local = 2.39899e-10, global = 1.06536e-22, cumulative = 3.75706e-23
piso setup 402.304 [ms]
 correctNonOrthogonal 
 setRef 
 startSolve 
PETSc-cg:  Solving for p, Initial residual = 0.139626, Final residual = 9.80036e-05, No Iterations 1251
linear solve p 60561.8 [ms]
piso step 60716 [ms]
 contErrors 
time step continuity errors : sum local = 2.35864e-10, global = -1.40575e-22, cumulative = -1.03004e-22
ExecutionTime = 1073.69 s  ClockTime = 1079 s

Time = 0.000171429

Courant Number mean: 0.00302348 max: 0.0923748
DILUPBiCGStab:  Solving for Ux, Initial residual = 0.0277268, Final residual = 3.41836e-05, No Iterations 5
DILUPBiCGStab:  Solving for Uy, Initial residual = 0.0492834, Final residual = 2.58575e-05, No Iterations 5
DILUPBiCGStab:  Solving for Uz, Initial residual = 0.0793515, Final residual = 9.74081e-05, No Iterations 5
linear solve U 2502.98 [ms]
piso setup 414.039 [ms]
 correctNonOrthogonal 
 setRef 
 startSolve 
PETSc-cg:  Solving for p, Initial residual = 0.0992264, Final residual = 9.99475e-05, No Iterations 1214
linear solve p 58687.1 [ms]
piso step 58846.3 [ms]
 contErrors 
time step continuity errors : sum local = 2.52803e-10, global = 5.69831e-23, cumulative = -4.60212e-23
piso setup 404.189 [ms]
 correctNonOrthogonal 
 setRef 
 startSolve 
PETSc-cg:  Solving for p, Initial residual = 0.0824722, Final residual = 9.87e-05, No Iterations 1193
linear solve p 57699.3 [ms]
piso step 57859.8 [ms]
 contErrors 
time step continuity errors : sum local = 2.3913e-10, global = -2.0985e-22, cumulative = -2.55871e-22
ExecutionTime = 1193.9 s  ClockTime = 1200 s

Time = 0.0002

Courant Number mean: 0.00329857 max: 0.0931098
DILUPBiCGStab:  Solving for Ux, Initial residual = 0.0234174, Final residual = 2.55178e-05, No Iterations 5
DILUPBiCGStab:  Solving for Uy, Initial residual = 0.0405877, Final residual = 2.30027e-05, No Iterations 5
DILUPBiCGStab:  Solving for Uz, Initial residual = 0.0675292, Final residual = 6.44317e-05, No Iterations 5
linear solve U 2525.55 [ms]
piso setup 409.266 [ms]
 correctNonOrthogonal 
 setRef 
 startSolve 
PETSc-cg:  Solving for p, Initial residual = 0.0661755, Final residual = 9.95036e-05, No Iterations 1201
linear solve p 58081.6 [ms]
piso step 58236.8 [ms]
 contErrors 
time step continuity errors : sum local = 2.32576e-10, global = 1.41559e-23, cumulative = -2.41715e-22
piso setup 406.231 [ms]
 correctNonOrthogonal 
 setRef 
 startSolve 
PETSc-cg:  Solving for p, Initial residual = 0.0560997, Final residual = 9.9616e-05, No Iterations 1195
linear solve p 57838.2 [ms]
piso step 57991.2 [ms]
 contErrors 
time step continuity errors : sum local = 2.29688e-10, global = -1.74941e-23, cumulative = -2.59209e-22
ExecutionTime = 1313.66 s  ClockTime = 1321 s

Time = 0.000228571

Courant Number mean: 0.00354609 max: 0.09366
DILUPBiCGStab:  Solving for Ux, Initial residual = 0.0203213, Final residual = 1.97442e-05, No Iterations 5
DILUPBiCGStab:  Solving for Uy, Initial residual = 0.0344593, Final residual = 1.76828e-05, No Iterations 5
DILUPBiCGStab:  Solving for Uz, Initial residual = 0.0600056, Final residual = 4.75175e-05, No Iterations 5
linear solve U 2494.55 [ms]
piso setup 409.528 [ms]
 correctNonOrthogonal 
 setRef 
 startSolve 
PETSc-cg:  Solving for p, Initial residual = 0.0445177, Final residual = 9.95657e-05, No Iterations 1211
linear solve p 58536.6 [ms]
piso step 58691.6 [ms]
 contErrors 
time step continuity errors : sum local = 2.44801e-10, global = 1.70795e-22, cumulative = -8.84142e-23
piso setup 403.689 [ms]
 correctNonOrthogonal 
 setRef 
 startSolve 
PETSc-cg:  Solving for p, Initial residual = 0.0386558, Final residual = 9.97998e-05, No Iterations 1138
linear solve p 55021.8 [ms]
piso step 55171.6 [ms]
 contErrors 
time step continuity errors : sum local = 2.35098e-10, global = 1.60207e-23, cumulative = -7.23935e-23
ExecutionTime = 1431.08 s  ClockTime = 1439 s

Time = 0.000257143

Courant Number mean: 0.00377206 max: 0.0940917
DILUPBiCGStab:  Solving for Ux, Initial residual = 0.0179637, Final residual = 1.56115e-05, No Iterations 5
DILUPBiCGStab:  Solving for Uy, Initial residual = 0.0299626, Final residual = 1.55969e-05, No Iterations 5
DILUPBiCGStab:  Solving for Uz, Initial residual = 0.0532964, Final residual = 3.82613e-05, No Iterations 5
linear solve U 2510.94 [ms]
piso setup 406.102 [ms]
 correctNonOrthogonal 
 setRef 
 startSolve 
PETSc-cg:  Solving for p, Initial residual = 0.0332142, Final residual = 9.85169e-05, No Iterations 1200
linear solve p 58066.5 [ms]
piso step 58218.9 [ms]
 contErrors 
time step continuity errors : sum local = 2.29063e-10, global = -5.93546e-23, cumulative = -1.31748e-22
piso setup 411.524 [ms]
 correctNonOrthogonal 
 setRef 
 startSolve 
PETSc-cg:  Solving for p, Initial residual = 0.0295008, Final residual = 9.95496e-05, No Iterations 1189
linear solve p 57584.3 [ms]
piso step 57734.6 [ms]
 contErrors 
time step continuity errors : sum local = 2.26652e-10, global = 4.68354e-24, cumulative = -1.27065e-22
ExecutionTime = 1550.61 s  ClockTime = 1559 s

Time = 0.000285714

Courant Number mean: 0.00398056 max: 0.0944422
DILUPBiCGStab:  Solving for Ux, Initial residual = 0.0161203, Final residual = 1.26701e-05, No Iterations 5
DILUPBiCGStab:  Solving for Uy, Initial residual = 0.0264645, Final residual = 1.2942e-05, No Iterations 5
DILUPBiCGStab:  Solving for Uz, Initial residual = 0.0483905, Final residual = 3.06322e-05, No Iterations 5
linear solve U 2498.23 [ms]
piso setup 406.895 [ms]
 correctNonOrthogonal 
 setRef 
 startSolve 
PETSc-cg:  Solving for p, Initial residual = 0.0248494, Final residual = 9.95481e-05, No Iterations 1207
linear solve p 58403.3 [ms]
piso step 58556.5 [ms]
 contErrors 
time step continuity errors : sum local = 2.44212e-10, global = 5.99351e-23, cumulative = -6.71294e-23
piso setup 409.68 [ms]
 correctNonOrthogonal 
 setRef 
 startSolve 
PETSc-cg:  Solving for p, Initial residual = 0.0226394, Final residual = 9.95573e-05, No Iterations 1111
linear solve p 53729.6 [ms]
piso step 53881.6 [ms]
 contErrors 
time step continuity errors : sum local = 2.33775e-10, global = -7.86154e-23, cumulative = -1.45745e-22
ExecutionTime = 1666.59 s  ClockTime = 1675 s

Time = 0.000314286

Courant Number mean: 0.00417466 max: 0.0947341
DILUPBiCGStab:  Solving for Ux, Initial residual = 0.0146192, Final residual = 1.04917e-05, No Iterations 5
DILUPBiCGStab:  Solving for Uy, Initial residual = 0.0237188, Final residual = 1.14904e-05, No Iterations 5
DILUPBiCGStab:  Solving for Uz, Initial residual = 0.043855, Final residual = 2.7757e-05, No Iterations 5
linear solve U 2512.23 [ms]
piso setup 407.559 [ms]
 correctNonOrthogonal 
 setRef 
 startSolve 
PETSc-cg:  Solving for p, Initial residual = 0.0210317, Final residual = 9.95249e-05, No Iterations 1184
linear solve p 57230.2 [ms]
piso step 57385.5 [ms]
 contErrors 
time step continuity errors : sum local = 2.32159e-10, global = 1.11782e-22, cumulative = -3.39632e-23
piso setup 403.248 [ms]
 correctNonOrthogonal 
 setRef 
 startSolve 
PETSc-cg:  Solving for p, Initial residual = 0.0193256, Final residual = 9.93834e-05, No Iterations 1150
linear solve p 55600.1 [ms]
piso step 55754.8 [ms]
 contErrors 
time step continuity errors : sum local = 2.25635e-10, global = -4.92318e-23, cumulative = -8.3195e-23
ExecutionTime = 1783.27 s  ClockTime = 1792 s

Time = 0.000342857

Courant Number mean: 0.00435675 max: 0.094982
DILUPBiCGStab:  Solving for Ux, Initial residual = 0.0133888, Final residual = 8.88464e-06, No Iterations 5
DILUPBiCGStab:  Solving for Uy, Initial residual = 0.0214572, Final residual = 1.00145e-05, No Iterations 5
DILUPBiCGStab:  Solving for Uz, Initial residual = 0.0404786, Final residual = 2.37803e-05, No Iterations 5
linear solve U 2499.16 [ms]
piso setup 406.132 [ms]
 correctNonOrthogonal 
 setRef 
 startSolve 
PETSc-cg:  Solving for p, Initial residual = 0.0174359, Final residual = 9.98483e-05, No Iterations 1204
linear solve p 58292.1 [ms]
piso step 58449.4 [ms]
 contErrors 
time step continuity errors : sum local = 2.46e-10, global = 1.10034e-22, cumulative = 2.68392e-23
piso setup 403.619 [ms]
 correctNonOrthogonal 
 setRef 
 startSolve 
PETSc-cg:  Solving for p, Initial residual = 0.0162708, Final residual = 9.99875e-05, No Iterations 1123
linear solve p 54388.5 [ms]
piso step 54543.4 [ms]
 contErrors 
time step continuity errors : sum local = 2.35269e-10, global = 1.9091e-22, cumulative = 2.17749e-22
ExecutionTime = 1899.81 s  ClockTime = 1910 s

Time = 0.000371429

Courant Number mean: 0.00452824 max: 0.095196
DILUPBiCGStab:  Solving for Ux, Initial residual = 0.0123431, Final residual = 7.66666e-06, No Iterations 5
DILUPBiCGStab:  Solving for Uy, Initial residual = 0.0196083, Final residual = 8.98999e-06, No Iterations 5
DILUPBiCGStab:  Solving for Uz, Initial residual = 0.0372686, Final residual = 2.28268e-05, No Iterations 5
linear solve U 2511.34 [ms]
piso setup 414.153 [ms]
 correctNonOrthogonal 
 setRef 
 startSolve 
PETSc-cg:  Solving for p, Initial residual = 0.0154063, Final residual = 9.94846e-05, No Iterations 1163
linear solve p 56313.4 [ms]
piso step 56469.3 [ms]
 contErrors 
time step continuity errors : sum local = 2.33564e-10, global = 1.71192e-22, cumulative = 3.88941e-22
piso setup 402.259 [ms]
 correctNonOrthogonal 
 setRef 
 startSolve 
PETSc-cg:  Solving for p, Initial residual = 0.0144322, Final residual = 9.97472e-05, No Iterations 1109
linear solve p 53670.5 [ms]
piso step 53824.1 [ms]
 contErrors 
time step continuity errors : sum local = 2.26368e-10, global = 1.23554e-22, cumulative = 5.12495e-22
ExecutionTime = 2013.67 s  ClockTime = 2024 s

Time = 0.0004

Courant Number mean: 0.00469069 max: 0.0953832
DILUPBiCGStab:  Solving for Ux, Initial residual = 0.0114606, Final residual = 6.75022e-06, No Iterations 5
DILUPBiCGStab:  Solving for Uy, Initial residual = 0.0180244, Final residual = 8.06366e-06, No Iterations 5
DILUPBiCGStab:  Solving for Uz, Initial residual = 0.0347752, Final residual = 2.05972e-05, No Iterations 5
linear solve U 2504.75 [ms]
piso setup 410.872 [ms]
 correctNonOrthogonal 
 setRef 
 startSolve 
PETSc-cg:  Solving for p, Initial residual = 0.0136574, Final residual = 9.76486e-05, No Iterations 1202
linear solve p 58131 [ms]
piso step 58284.7 [ms]
 contErrors 
time step continuity errors : sum local = 2.42586e-10, global = 1.11853e-22, cumulative = 6.24348e-22
piso setup 405.581 [ms]
 correctNonOrthogonal 
 setRef 
 startSolve 
PETSc-cg:  Solving for p, Initial residual = 0.0128746, Final residual = 9.92101e-05, No Iterations 1135
linear solve p 54866.5 [ms]
piso step 55015.9 [ms]
 contErrors 
time step continuity errors : sum local = 2.34264e-10, global = -6.92779e-23, cumulative = 5.5507e-22
ExecutionTime = 2130.52 s  ClockTime = 2141 s

Time = 0.000428571

Courant Number mean: 0.0048451 max: 0.0955487
DILUPBiCGStab:  Solving for Ux, Initial residual = 0.0106873, Final residual = 6.09728e-06, No Iterations 5
DILUPBiCGStab:  Solving for Uy, Initial residual = 0.0166968, Final residual = 7.33855e-06, No Iterations 5
DILUPBiCGStab:  Solving for Uz, Initial residual = 0.0323815, Final residual = 2.02295e-05, No Iterations 5
linear solve U 2513.39 [ms]
piso setup 406.479 [ms]
 correctNonOrthogonal 
 setRef 
 startSolve 
PETSc-cg:  Solving for p, Initial residual = 0.0123695, Final residual = 9.87494e-05, No Iterations 1137
linear solve p 55012.8 [ms]
piso step 55167.1 [ms]
 contErrors 
time step continuity errors : sum local = 2.33607e-10, global = -1.15019e-22, cumulative = 4.4005e-22
piso setup 400.805 [ms]
 correctNonOrthogonal 
 setRef 
 startSolve 
PETSc-cg:  Solving for p, Initial residual = 0.0117158, Final residual = 9.84753e-05, No Iterations 1041
linear solve p 50352 [ms]
piso step 50506.3 [ms]
 contErrors 
time step continuity errors : sum local = 2.23459e-10, global = 3.61709e-23, cumulative = 4.76221e-22
ExecutionTime = 2239.77 s  ClockTime = 2251 s

Time = 0.000457143

Courant Number mean: 0.00499237 max: 0.0956964
DILUPBiCGStab:  Solving for Ux, Initial residual = 0.0100222, Final residual = 5.56556e-06, No Iterations 5
DILUPBiCGStab:  Solving for Uy, Initial residual = 0.0155241, Final residual = 6.70607e-06, No Iterations 5
DILUPBiCGStab:  Solving for Uz, Initial residual = 0.0305143, Final residual = 1.89681e-05, No Iterations 5
linear solve U 2492.52 [ms]
piso setup 408.459 [ms]
 correctNonOrthogonal 
 setRef 
 startSolve 
PETSc-cg:  Solving for p, Initial residual = 0.0112625, Final residual = 9.84211e-05, No Iterations 1201
linear solve p 58070.9 [ms]
piso step 58225 [ms]
 contErrors 
time step continuity errors : sum local = 2.4609e-10, global = 1.55748e-22, cumulative = 6.31969e-22
piso setup 405.133 [ms]
 correctNonOrthogonal 
 setRef 
 startSolve 
PETSc-cg:  Solving for p, Initial residual = 0.0106628, Final residual = 9.94181e-05, No Iterations 1136
linear solve p 54949.3 [ms]
piso step 55102.4 [ms]
 contErrors 
time step continuity errors : sum local = 2.35531e-10, global = -6.6012e-23, cumulative = 5.65957e-22
ExecutionTime = 2356.58 s  ClockTime = 2369 s

Time = 0.000485714

Courant Number mean: 0.00513332 max: 0.0958293
DILUPBiCGStab:  Solving for Ux, Initial residual = 0.00942513, Final residual = 5.11908e-06, No Iterations 5
DILUPBiCGStab:  Solving for Uy, Initial residual = 0.0145268, Final residual = 6.18631e-06, No Iterations 5
DILUPBiCGStab:  Solving for Uz, Initial residual = 0.0286299, Final residual = 1.87126e-05, No Iterations 5
linear solve U 2510.25 [ms]
piso setup 410.592 [ms]
 correctNonOrthogonal 
 setRef 
 startSolve 
PETSc-cg:  Solving for p, Initial residual = 0.0104434, Final residual = 9.9313e-05, No Iterations 1129
linear solve p 54559.8 [ms]
piso step 54713.1 [ms]
 contErrors 
time step continuity errors : sum local = 2.36686e-10, global = 6.79588e-23, cumulative = 6.33916e-22
piso setup 400.732 [ms]
 correctNonOrthogonal 
 setRef 
 startSolve 
PETSc-cg:  Solving for p, Initial residual = 0.00990757, Final residual = 9.97766e-05, No Iterations 1026
linear solve p 49623.1 [ms]
piso step 49784.4 [ms]
 contErrors 
time step continuity errors : sum local = 2.26304e-10, global = 1.37635e-23, cumulative = 6.47679e-22
ExecutionTime = 2464.7 s  ClockTime = 2477 s

Time = 0.000514286

Courant Number mean: 0.00526844 max: 0.0959496
DILUPBiCGStab:  Solving for Ux, Initial residual = 0.00890566, Final residual = 4.74759e-06, No Iterations 5
DILUPBiCGStab:  Solving for Uy, Initial residual = 0.0136227, Final residual = 5.73062e-06, No Iterations 5
DILUPBiCGStab:  Solving for Uz, Initial residual = 0.0271641, Final residual = 1.79051e-05, No Iterations 5
linear solve U 2508.43 [ms]
piso setup 409.468 [ms]
 correctNonOrthogonal 
 setRef 
 startSolve 
PETSc-cg:  Solving for p, Initial residual = 0.00970713, Final residual = 9.99461e-05, No Iterations 1204
linear solve p 58191.6 [ms]
piso step 58344.7 [ms]
 contErrors 
time step continuity errors : sum local = 2.51441e-10, global = 1.51102e-22, cumulative = 7.98782e-22
piso setup 401.489 [ms]
 correctNonOrthogonal 
 setRef 
 startSolve 
PETSc-cg:  Solving for p, Initial residual = 0.00920032, Final residual = 9.97798e-05, No Iterations 1128
linear solve p 54531 [ms]
piso step 54686.2 [ms]
 contErrors 
time step continuity errors : sum local = 2.37173e-10, global = 1.20643e-23, cumulative = 8.10846e-22
ExecutionTime = 2581.28 s  ClockTime = 2594 s

Time = 0.000542857

Courant Number mean: 0.00539838 max: 0.0960593
DILUPBiCGStab:  Solving for Ux, Initial residual = 0.00842998, Final residual = 4.42722e-06, No Iterations 5
DILUPBiCGStab:  Solving for Uy, Initial residual = 0.0128471, Final residual = 5.35021e-06, No Iterations 5
DILUPBiCGStab:  Solving for Uz, Initial residual = 0.0256414, Final residual = 1.76566e-05, No Iterations 5
linear solve U 2501.82 [ms]
piso setup 409.838 [ms]
 correctNonOrthogonal 
 setRef 
 startSolve 
PETSc-cg:  Solving for p, Initial residual = 0.00903837, Final residual = 9.92367e-05, No Iterations 1124
linear solve p 54337.3 [ms]
piso step 54489.1 [ms]
 contErrors 
time step continuity errors : sum local = 2.38386e-10, global = 8.42144e-23, cumulative = 8.9506e-22
piso setup 400.7 [ms]
 correctNonOrthogonal 
 setRef 
 startSolve 
PETSc-cg:  Solving for p, Initial residual = 0.00858994, Final residual = 9.97194e-05, No Iterations 1020
linear solve p 49335.9 [ms]
piso step 49488.2 [ms]
 contErrors 
time step continuity errors : sum local = 2.26146e-10, global = -4.63622e-23, cumulative = 8.48698e-22
ExecutionTime = 2688.88 s  ClockTime = 2703 s

Time = 0.000571429

Courant Number mean: 0.00552352 max: 0.0961599
DILUPBiCGStab:  Solving for Ux, Initial residual = 0.0080129, Final residual = 4.15279e-06, No Iterations 5
DILUPBiCGStab:  Solving for Uy, Initial residual = 0.0121282, Final residual = 5.01017e-06, No Iterations 5
DILUPBiCGStab:  Solving for Uz, Initial residual = 0.0244797, Final residual = 1.70921e-05, No Iterations 5
linear solve U 2493 [ms]
piso setup 409.632 [ms]
 correctNonOrthogonal 
 setRef 
 startSolve 
PETSc-cg:  Solving for p, Initial residual = 0.00851633, Final residual = 9.97646e-05, No Iterations 2508
linear solve p 121366 [ms]
piso step 121520 [ms]
 contErrors 
time step continuity errors : sum local = 2.26219e-10, global = 3.27762e-23, cumulative = 8.81474e-22
piso setup 403.179 [ms]
 correctNonOrthogonal 
 setRef 
 startSolve 
PETSc-cg:  Solving for p, Initial residual = 0.00809108, Final residual = 9.9399e-05, No Iterations 1192
linear solve p 57649.7 [ms]
piso step 57802.5 [ms]
 contErrors 
time step continuity errors : sum local = 2.47587e-10, global = -2.45392e-23, cumulative = 8.56935e-22
ExecutionTime = 2871.41 s  ClockTime = 2886 s

End

Finalizing PETSc
Finalising parallel run
================================================================================
