hash: ccccb522b4ccc463c2bb1731917de631
/*---------------------------------------------------------------------------*\
| =========                 |                                                 |
| \\      /  F ield         | OpenFOAM: The Open Source CFD Toolbox           |
|  \\    /   O peration     | Version:  v2106                                 |
|   \\  /    A nd           | Website:  www.openfoam.com                      |
|    \\/     M anipulation  |                                                 |
\*---------------------------------------------------------------------------*/
Build  : f815a12bba-20210902 OPENFOAM=2106
Arch   : "LSB;label=32;scalar=64"
Exec   : icoFoam -parallel
Date   : Jan 27 2022
Time   : 08:10:01
Host   : nla-gpu2.ianm.kit.edu
PID    : 3153745
I/O    : uncollated
Case   : /home/greole/data/code/ogl_labbook/lidDrivenCavity3D/solver/Variation_mesh/400/Variation_matrix_solver/CG_NoPrecond_DefaultOF/Variation_mpiRank/32/base
nProcs : 32
Hosts  :
(
    (nla-gpu2.ianm.kit.edu 32)
)
Pstream initialized with:
    floatTransfer      : 0
    nProcsSimpleSum    : 0
    commsType          : nonBlocking
    polling iterations : 0
trapFpe: Floating point exception trapping enabled (FOAM_SIGFPE).
fileModificationChecking : Monitoring run-time modified files using timeStampMaster (fileModificationSkew 5, maxFileModificationPolls 20)
allowSystemOperations : Allowing user-supplied system call operations

// * * * * * * * * * * * * * * * * * * * * * * * * * * * * * * * * * * * * * //
Create time

Create mesh for time = 0


PISO: Operating solver in PISO mode

Reading transportProperties

Reading field p

Reading field U

Reading/calculating face flux field phi


Starting time loop

Time = 0.00025

Courant Number mean: 0 max: 0
DILUPBiCGStab:  Solving for Ux, Initial residual = 1, Final residual = 0.0340181, No Iterations 5
DILUPBiCGStab:  Solving for Uy:  solution singularity
DILUPBiCGStab:  Solving for Uz:  solution singularity
linear solve U 1874998
nonePCG:  Solving for p, Initial residual = 1, Final residual = 9.95606e-07, No Iterations 3555
linear solve p 214209248
time step continuity errors : sum local = 6.07169e-11, global = 6.23662e-21, cumulative = 6.23662e-21
nonePCG:  Solving for p, Initial residual = 0.841162, Final residual = 9.99483e-07, No Iterations 3533
linear solve p 212897538
time step continuity errors : sum local = 7.18945e-11, global = -4.99676e-22, cumulative = 5.73695e-21
ExecutionTime = 440.05 s  ClockTime = 442 s

Time = 0.0005

Courant Number mean: 0.0248469 max: 0.904816
DILUPBiCGStab:  Solving for Ux, Initial residual = 0.0982264, Final residual = 0.0230163, No Iterations 5
DILUPBiCGStab:  Solving for Uy, Initial residual = 0.574553, Final residual = 0.130562, No Iterations 5
DILUPBiCGStab:  Solving for Uz, Initial residual = 0.936016, Final residual = 0.240601, No Iterations 5
linear solve U 3718190
nonePCG:  Solving for p, Initial residual = 0.944011, Final residual = 9.96791e-07, No Iterations 3514
linear solve p 211533252
time step continuity errors : sum local = 2.35681e-10, global = -3.58177e-22, cumulative = 5.37877e-21
nonePCG:  Solving for p, Initial residual = 0.898064, Final residual = 9.9299e-07, No Iterations 3510
linear solve p 211364573
time step continuity errors : sum local = 2.39446e-10, global = -1.1705e-21, cumulative = 4.20827e-21
ExecutionTime = 867.46 s  ClockTime = 872 s

Time = 0.00075

Courant Number mean: 0.0403189 max: 1.11046
DILUPBiCGStab:  Solving for Ux, Initial residual = 0.0633126, Final residual = 0.0121648, No Iterations 5
DILUPBiCGStab:  Solving for Uy, Initial residual = 0.446949, Final residual = 0.0625726, No Iterations 5
DILUPBiCGStab:  Solving for Uz, Initial residual = 0.830668, Final residual = 0.161635, No Iterations 5
linear solve U 3722412
nonePCG:  Solving for p, Initial residual = 0.971216, Final residual = 9.98972e-07, No Iterations 3515
linear solve p 211545015
time step continuity errors : sum local = 3.84924e-10, global = -1.90949e-22, cumulative = 4.01732e-21
nonePCG:  Solving for p, Initial residual = 0.933493, Final residual = 9.87879e-07, No Iterations 3513
linear solve p 211673347
time step continuity errors : sum local = 3.81951e-10, global = -4.45545e-22, cumulative = 3.57178e-21
ExecutionTime = 1295.2 s  ClockTime = 1302 s

End

Finalising parallel run
================================================================================
hash: 269e803573b18c242c998396291f348f
/*---------------------------------------------------------------------------*\
| =========                 |                                                 |
| \\      /  F ield         | OpenFOAM: The Open Source CFD Toolbox           |
|  \\    /   O peration     | Version:  v2106                                 |
|   \\  /    A nd           | Website:  www.openfoam.com                      |
|    \\/     M anipulation  |                                                 |
\*---------------------------------------------------------------------------*/
Build  : f815a12bba-20210902 OPENFOAM=2106
Arch   : "LSB;label=32;scalar=64"
Exec   : icoFoam -parallel
Date   : Jan 27 2022
Time   : 08:31:44
Host   : nla-gpu2.ianm.kit.edu
PID    : 3165787
I/O    : uncollated
Case   : /home/greole/data/code/ogl_labbook/lidDrivenCavity3D/solver/Variation_mesh/400/Variation_matrix_solver/CG_DIC_DefaultOF/Variation_mpiRank/32/base
nProcs : 32
Hosts  :
(
    (nla-gpu2.ianm.kit.edu 32)
)
Pstream initialized with:
    floatTransfer      : 0
    nProcsSimpleSum    : 0
    commsType          : nonBlocking
    polling iterations : 0
trapFpe: Floating point exception trapping enabled (FOAM_SIGFPE).
fileModificationChecking : Monitoring run-time modified files using timeStampMaster (fileModificationSkew 5, maxFileModificationPolls 20)
allowSystemOperations : Allowing user-supplied system call operations

// * * * * * * * * * * * * * * * * * * * * * * * * * * * * * * * * * * * * * //
Create time

Create mesh for time = 0


PISO: Operating solver in PISO mode

Reading transportProperties

Reading field p

Reading field U

Reading/calculating face flux field phi


Starting time loop

Time = 0.00025

Courant Number mean: 0 max: 0
DILUPBiCGStab:  Solving for Ux, Initial residual = 1, Final residual = 0.0340181, No Iterations 5
DILUPBiCGStab:  Solving for Uy:  solution singularity
DILUPBiCGStab:  Solving for Uz:  solution singularity
linear solve U 1857982
DICPCG:  Solving for p, Initial residual = 1, Final residual = 9.92048e-07, No Iterations 1557
linear solve p 151478591
time step continuity errors : sum local = 6.04997e-11, global = 5.25317e-21, cumulative = 5.25317e-21
DICPCG:  Solving for p, Initial residual = 0.841162, Final residual = 9.97027e-07, No Iterations 1547
linear solve p 150511173
time step continuity errors : sum local = 7.17176e-11, global = -5.3568e-22, cumulative = 4.71749e-21
ExecutionTime = 315.71 s  ClockTime = 317 s

Time = 0.0005

Courant Number mean: 0.0248469 max: 0.904816
DILUPBiCGStab:  Solving for Ux, Initial residual = 0.0982264, Final residual = 0.0230163, No Iterations 5
DILUPBiCGStab:  Solving for Uy, Initial residual = 0.574553, Final residual = 0.130562, No Iterations 5
DILUPBiCGStab:  Solving for Uz, Initial residual = 0.936016, Final residual = 0.240602, No Iterations 5
linear solve U 3730641
DICPCG:  Solving for p, Initial residual = 0.944011, Final residual = 9.9505e-07, No Iterations 1519
linear solve p 147628511
time step continuity errors : sum local = 2.35271e-10, global = -1.28756e-21, cumulative = 3.42992e-21
DICPCG:  Solving for p, Initial residual = 0.898064, Final residual = 9.9802e-07, No Iterations 1517
linear solve p 147493274
time step continuity errors : sum local = 2.4066e-10, global = -1.68708e-22, cumulative = 3.26122e-21
ExecutionTime = 616.02 s  ClockTime = 619 s

Time = 0.00075

Courant Number mean: 0.0403189 max: 1.11046
DILUPBiCGStab:  Solving for Ux, Initial residual = 0.0633126, Final residual = 0.0121648, No Iterations 5
DILUPBiCGStab:  Solving for Uy, Initial residual = 0.446949, Final residual = 0.0625727, No Iterations 5
DILUPBiCGStab:  Solving for Uz, Initial residual = 0.830672, Final residual = 0.161639, No Iterations 5
linear solve U 3735681
DICPCG:  Solving for p, Initial residual = 0.971216, Final residual = 9.73863e-07, No Iterations 937
linear solve p 91154169
time step continuity errors : sum local = 4.10287e-10, global = -2.82114e-23, cumulative = 3.233e-21
DICPCG:  Solving for p, Initial residual = 0.933494, Final residual = 9.77756e-07, No Iterations 905
linear solve p 88138552
time step continuity errors : sum local = 3.86256e-10, global = -1.09058e-21, cumulative = 2.14242e-21
ExecutionTime = 801.04 s  ClockTime = 805 s

End

Finalising parallel run
================================================================================
hash: 76dbe5951ecb0bb461d6b14a79a01b2c
/*---------------------------------------------------------------------------*\
| =========                 |                                                 |
| \\      /  F ield         | OpenFOAM: The Open Source CFD Toolbox           |
|  \\    /   O peration     | Version:  v2106                                 |
|   \\  /    A nd           | Website:  www.openfoam.com                      |
|    \\/     M anipulation  |                                                 |
\*---------------------------------------------------------------------------*/
Build  : f815a12bba-20210902 OPENFOAM=2106
Arch   : "LSB;label=32;scalar=64"
Exec   : icoFoam -parallel
Date   : Jan 27 2022
Time   : 09:08:41
Host   : nla-gpu2.ianm.kit.edu
PID    : 3186614
I/O    : uncollated
Case   : /home/greole/data/code/ogl_labbook/lidDrivenCavity3D/solver/Variation_mesh/400/Variation_matrix_solver/BiCGStab_DIC_DefaultOF/Variation_mpiRank/32/base
nProcs : 32
Hosts  :
(
    (nla-gpu2.ianm.kit.edu 32)
)
Pstream initialized with:
    floatTransfer      : 0
    nProcsSimpleSum    : 0
    commsType          : nonBlocking
    polling iterations : 0
trapFpe: Floating point exception trapping enabled (FOAM_SIGFPE).
fileModificationChecking : Monitoring run-time modified files using timeStampMaster (fileModificationSkew 5, maxFileModificationPolls 20)
allowSystemOperations : Allowing user-supplied system call operations

// * * * * * * * * * * * * * * * * * * * * * * * * * * * * * * * * * * * * * //
Create time

Create mesh for time = 0


PISO: Operating solver in PISO mode

Reading transportProperties

Reading field p

Reading field U

Reading/calculating face flux field phi


Starting time loop

Time = 0.00025

Courant Number mean: 0 max: 0
DILUPBiCGStab:  Solving for Ux, Initial residual = 1, Final residual = 0.0340181, No Iterations 5
DILUPBiCGStab:  Solving for Uy:  solution singularity
DILUPBiCGStab:  Solving for Uz:  solution singularity
linear solve U 1861048
DICPBiCGStab:  Solving for p, Initial residual = 1, Final residual = 9.36673e-07, No Iterations 1051
linear solve p 199228095
time step continuity errors : sum local = 5.94994e-11, global = 4.96171e-21, cumulative = 4.96171e-21
DICPBiCGStab:  Solving for p, Initial residual = 0.841162, Final residual = 9.39141e-07, No Iterations 1181
linear solve p 224128239
time step continuity errors : sum local = 6.92137e-11, global = 5.46973e-23, cumulative = 5.0164e-21
ExecutionTime = 436.28 s  ClockTime = 438 s

Time = 0.0005

Courant Number mean: 0.0248469 max: 0.904816
DILUPBiCGStab:  Solving for Ux, Initial residual = 0.0982264, Final residual = 0.0230163, No Iterations 5
DILUPBiCGStab:  Solving for Uy, Initial residual = 0.574553, Final residual = 0.130562, No Iterations 5
DILUPBiCGStab:  Solving for Uz, Initial residual = 0.936013, Final residual = 0.240605, No Iterations 5
linear solve U 3725157
DICPBiCGStab:  Solving for p, Initial residual = 0.944011, Final residual = 9.15206e-07, No Iterations 1119
linear solve p 212054176
time step continuity errors : sum local = 2.1938e-10, global = 6.82721e-22, cumulative = 5.69912e-21
DICPBiCGStab:  Solving for p, Initial residual = 0.898064, Final residual = 4.87382e-07, No Iterations 1108
linear solve p 210211671
time step continuity errors : sum local = 1.18244e-10, global = -8.8556e-23, cumulative = 5.61057e-21
ExecutionTime = 863.08 s  ClockTime = 867 s

Time = 0.00075

Courant Number mean: 0.0403189 max: 1.11046
DILUPBiCGStab:  Solving for Ux, Initial residual = 0.0633124, Final residual = 0.0121647, No Iterations 5
DILUPBiCGStab:  Solving for Uy, Initial residual = 0.446949, Final residual = 0.062573, No Iterations 5
DILUPBiCGStab:  Solving for Uz, Initial residual = 0.830728, Final residual = 0.161673, No Iterations 5
linear solve U 3723680
DICPBiCGStab:  Solving for p, Initial residual = 0.971216, Final residual = 9.94021e-07, No Iterations 551
linear solve p 104528159
time step continuity errors : sum local = 4.29819e-10, global = 1.4833e-22, cumulative = 5.7589e-21
DICPBiCGStab:  Solving for p, Initial residual = 0.933494, Final residual = 9.99417e-07, No Iterations 570
linear solve p 108175644
time step continuity errors : sum local = 3.98064e-10, global = 2.20082e-22, cumulative = 5.97898e-21
ExecutionTime = 1081.29 s  ClockTime = 1087 s

End

Finalising parallel run
================================================================================
hash: 1dddc6ef9a568586cef083f71706b773
/*---------------------------------------------------------------------------*\
| =========                 |                                                 |
| \\      /  F ield         | OpenFOAM: The Open Source CFD Toolbox           |
|  \\    /   O peration     | Version:  v2106                                 |
|   \\  /    A nd           | Website:  www.openfoam.com                      |
|    \\/     M anipulation  |                                                 |
\*---------------------------------------------------------------------------*/
Build  : f815a12bba-20210902 OPENFOAM=2106
Arch   : "LSB;label=32;scalar=64"
Exec   : icoFoam -parallel
Date   : Jan 27 2022
Time   : 09:26:49
Host   : nla-gpu2.ianm.kit.edu
PID    : 3196516
I/O    : uncollated
Case   : /home/greole/data/code/ogl_labbook/lidDrivenCavity3D/solver/Variation_mesh/400/Variation_matrix_solver/BiCGStab_NoPrecond_DefaultOF/Variation_mpiRank/32/base
nProcs : 32
Hosts  :
(
    (nla-gpu2.ianm.kit.edu 32)
)
Pstream initialized with:
    floatTransfer      : 0
    nProcsSimpleSum    : 0
    commsType          : nonBlocking
    polling iterations : 0
trapFpe: Floating point exception trapping enabled (FOAM_SIGFPE).
fileModificationChecking : Monitoring run-time modified files using timeStampMaster (fileModificationSkew 5, maxFileModificationPolls 20)
allowSystemOperations : Allowing user-supplied system call operations

// * * * * * * * * * * * * * * * * * * * * * * * * * * * * * * * * * * * * * //
Create time

Create mesh for time = 0


PISO: Operating solver in PISO mode

Reading transportProperties

Reading field p

Reading field U

Reading/calculating face flux field phi


Starting time loop

Time = 0.00025

Courant Number mean: 0 max: 0
DILUPBiCGStab:  Solving for Ux, Initial residual = 1, Final residual = 0.0340181, No Iterations 5
DILUPBiCGStab:  Solving for Uy:  solution singularity
DILUPBiCGStab:  Solving for Uz:  solution singularity
linear solve U 1874217
nonePBiCGStab:  Solving for p, Initial residual = 1, Final residual = 9.86391e-07, No Iterations 3680
linear solve p 434044879
time step continuity errors : sum local = 1.20309e-10, global = 5.73603e-21, cumulative = 5.73603e-21
nonePBiCGStab:  Solving for p, Initial residual = 0.841166, Final residual = 9.23889e-07, No Iterations 3327
linear solve p 392262967
time step continuity errors : sum local = 1.32912e-10, global = -1.44847e-22, cumulative = 5.59118e-21
ExecutionTime = 831.34 s  ClockTime = 841 s

Time = 0.0005

Courant Number mean: 0.0248469 max: 0.904816
DILUPBiCGStab:  Solving for Ux, Initial residual = 0.0982275, Final residual = 0.0230168, No Iterations 5
DILUPBiCGStab:  Solving for Uy, Initial residual = 0.574556, Final residual = 0.130561, No Iterations 5
DILUPBiCGStab:  Solving for Uz, Initial residual = 0.936083, Final residual = 0.240698, No Iterations 5
linear solve U 3767038
nonePBiCGStab:  Solving for p, Initial residual = 0.944013, Final residual = 6.12013e-07, No Iterations 3808
linear solve p 448837104
time step continuity errors : sum local = 2.86865e-10, global = -1.71278e-22, cumulative = 5.4199e-21
nonePBiCGStab:  Solving for p, Initial residual = 0.89806, Final residual = 3.93221e-07, No Iterations 3413
linear solve p 402341557
time step continuity errors : sum local = 1.8112e-10, global = 6.52852e-22, cumulative = 6.07275e-21
ExecutionTime = 1679.05 s  ClockTime = 1699 s

Time = 0.00075

Courant Number mean: 0.0403189 max: 1.11046
DILUPBiCGStab:  Solving for Ux, Initial residual = 0.0633128, Final residual = 0.012164, No Iterations 5
DILUPBiCGStab:  Solving for Uy, Initial residual = 0.447, Final residual = 0.0625993, No Iterations 5
DILUPBiCGStab:  Solving for Uz, Initial residual = 0.830864, Final residual = 0.161869, No Iterations 5
linear solve U 3766836
nonePBiCGStab:  Solving for p, Initial residual = 0.971217, Final residual = 9.19222e-07, No Iterations 4570
linear solve p 538607041
time step continuity errors : sum local = 6.14878e-10, global = 8.48687e-22, cumulative = 6.92144e-21
nonePBiCGStab:  Solving for p, Initial residual = 0.933477, Final residual = 9.76587e-07, No Iterations 3891
linear solve p 458913622
time step continuity errors : sum local = 5.26581e-10, global = 3.76109e-22, cumulative = 7.29755e-21
ExecutionTime = 2671.15 s  ClockTime = 2703 s

End

Finalising parallel run
================================================================================
hash: 7a772e4c86d3765dcf6a29f4191a6e80
/*---------------------------------------------------------------------------*\
| =========                 |                                                 |
| \\      /  F ield         | OpenFOAM: The Open Source CFD Toolbox           |
|  \\    /   O peration     | Version:  v2106                                 |
|   \\  /    A nd           | Website:  www.openfoam.com                      |
|    \\/     M anipulation  |                                                 |
\*---------------------------------------------------------------------------*/
Build  : f815a12bba-20210902 OPENFOAM=2106
Arch   : "LSB;label=32;scalar=64"
Exec   : icoFoam -parallel
Date   : Jan 27 2022
Time   : 10:11:54
Host   : nla-gpu2.ianm.kit.edu
PID    : 3221303
I/O    : uncollated
Case   : /home/greole/data/code/ogl_labbook/lidDrivenCavity3D/solver/Variation_mesh/400/Variation_matrix_solver/CG_NoPrecond_DefaultOF/Variation_mpiRank/32/base
nProcs : 32
Hosts  :
(
    (nla-gpu2.ianm.kit.edu 32)
)
Pstream initialized with:
    floatTransfer      : 0
    nProcsSimpleSum    : 0
    commsType          : nonBlocking
    polling iterations : 0
trapFpe: Floating point exception trapping enabled (FOAM_SIGFPE).
fileModificationChecking : Monitoring run-time modified files using timeStampMaster (fileModificationSkew 5, maxFileModificationPolls 20)
allowSystemOperations : Allowing user-supplied system call operations

// * * * * * * * * * * * * * * * * * * * * * * * * * * * * * * * * * * * * * //
Create time

Create mesh for time = 0


PISO: Operating solver in PISO mode

Reading transportProperties

Reading field p

Reading field U

Reading/calculating face flux field phi


Starting time loop

Time = 0.00025

Courant Number mean: 0 max: 0
DILUPBiCGStab:  Solving for Ux, Initial residual = 1, Final residual = 0.0340181, No Iterations 5
DILUPBiCGStab:  Solving for Uy:  solution singularity
DILUPBiCGStab:  Solving for Uz:  solution singularity
linear solve U 1850495
nonePCG:  Solving for p, Initial residual = 1, Final residual = 9.95606e-07, No Iterations 3555
linear solve p 213990844
time step continuity errors : sum local = 6.07169e-11, global = 6.23662e-21, cumulative = 6.23662e-21
nonePCG:  Solving for p, Initial residual = 0.841162, Final residual = 9.99483e-07, No Iterations 3533
linear solve p 212666616
time step continuity errors : sum local = 7.18945e-11, global = -4.99676e-22, cumulative = 5.73695e-21
ExecutionTime = 439.62 s  ClockTime = 441 s

Time = 0.0005

Courant Number mean: 0.0248469 max: 0.904816
DILUPBiCGStab:  Solving for Ux, Initial residual = 0.0982264, Final residual = 0.0230163, No Iterations 5
DILUPBiCGStab:  Solving for Uy, Initial residual = 0.574553, Final residual = 0.130562, No Iterations 5
DILUPBiCGStab:  Solving for Uz, Initial residual = 0.936016, Final residual = 0.240601, No Iterations 5
linear solve U 3711366
nonePCG:  Solving for p, Initial residual = 0.944011, Final residual = 9.96791e-07, No Iterations 3514
linear solve p 211290287
time step continuity errors : sum local = 2.35681e-10, global = -3.58177e-22, cumulative = 5.37877e-21
nonePCG:  Solving for p, Initial residual = 0.898064, Final residual = 9.9299e-07, No Iterations 3510
linear solve p 211140171
time step continuity errors : sum local = 2.39446e-10, global = -1.1705e-21, cumulative = 4.20827e-21
ExecutionTime = 866.59 s  ClockTime = 870 s

Time = 0.00075

Courant Number mean: 0.0403189 max: 1.11046
DILUPBiCGStab:  Solving for Ux, Initial residual = 0.0633126, Final residual = 0.0121648, No Iterations 5
DILUPBiCGStab:  Solving for Uy, Initial residual = 0.446949, Final residual = 0.0625726, No Iterations 5
DILUPBiCGStab:  Solving for Uz, Initial residual = 0.830668, Final residual = 0.161635, No Iterations 5
linear solve U 3718313
nonePCG:  Solving for p, Initial residual = 0.971216, Final residual = 9.98972e-07, No Iterations 3515
linear solve p 211499884
time step continuity errors : sum local = 3.84924e-10, global = -1.90949e-22, cumulative = 4.01732e-21
nonePCG:  Solving for p, Initial residual = 0.933493, Final residual = 9.87879e-07, No Iterations 3513
linear solve p 211323082
time step continuity errors : sum local = 3.81951e-10, global = -4.45545e-22, cumulative = 3.57178e-21
ExecutionTime = 1293.91 s  ClockTime = 1300 s

End

Finalising parallel run
================================================================================
hash: 72ab120fef110b23d5d2051d29a0ad7d
/*---------------------------------------------------------------------------*\
| =========                 |                                                 |
| \\      /  F ield         | OpenFOAM: The Open Source CFD Toolbox           |
|  \\    /   O peration     | Version:  v2106                                 |
|   \\  /    A nd           | Website:  www.openfoam.com                      |
|    \\/     M anipulation  |                                                 |
\*---------------------------------------------------------------------------*/
Build  : f815a12bba-20210902 OPENFOAM=2106
Arch   : "LSB;label=32;scalar=64"
Exec   : icoFoam -parallel
Date   : Jan 27 2022
Time   : 10:33:35
Host   : nla-gpu2.ianm.kit.edu
PID    : 3233204
I/O    : uncollated
Case   : /home/greole/data/code/ogl_labbook/lidDrivenCavity3D/solver/Variation_mesh/400/Variation_matrix_solver/CG_DIC_DefaultOF/Variation_mpiRank/32/base
nProcs : 32
Hosts  :
(
    (nla-gpu2.ianm.kit.edu 32)
)
Pstream initialized with:
    floatTransfer      : 0
    nProcsSimpleSum    : 0
    commsType          : nonBlocking
    polling iterations : 0
trapFpe: Floating point exception trapping enabled (FOAM_SIGFPE).
fileModificationChecking : Monitoring run-time modified files using timeStampMaster (fileModificationSkew 5, maxFileModificationPolls 20)
allowSystemOperations : Allowing user-supplied system call operations

// * * * * * * * * * * * * * * * * * * * * * * * * * * * * * * * * * * * * * //
Create time

Create mesh for time = 0


PISO: Operating solver in PISO mode

Reading transportProperties

Reading field p

Reading field U

Reading/calculating face flux field phi


Starting time loop

Time = 0.00025

Courant Number mean: 0 max: 0
DILUPBiCGStab:  Solving for Ux, Initial residual = 1, Final residual = 0.0340181, No Iterations 5
DILUPBiCGStab:  Solving for Uy:  solution singularity
DILUPBiCGStab:  Solving for Uz:  solution singularity
linear solve U 1859168
DICPCG:  Solving for p, Initial residual = 1, Final residual = 9.92048e-07, No Iterations 1557
linear solve p 151124888
time step continuity errors : sum local = 6.04997e-11, global = 5.25317e-21, cumulative = 5.25317e-21
DICPCG:  Solving for p, Initial residual = 0.841162, Final residual = 9.97027e-07, No Iterations 1547
linear solve p 150080723
time step continuity errors : sum local = 7.17176e-11, global = -5.3568e-22, cumulative = 4.71749e-21
ExecutionTime = 314.83 s  ClockTime = 316 s

Time = 0.0005

Courant Number mean: 0.0248469 max: 0.904816
DILUPBiCGStab:  Solving for Ux, Initial residual = 0.0982264, Final residual = 0.0230163, No Iterations 5
DILUPBiCGStab:  Solving for Uy, Initial residual = 0.574553, Final residual = 0.130562, No Iterations 5
DILUPBiCGStab:  Solving for Uz, Initial residual = 0.936016, Final residual = 0.240602, No Iterations 5
linear solve U 3710028
DICPCG:  Solving for p, Initial residual = 0.944011, Final residual = 9.9505e-07, No Iterations 1519
linear solve p 147305466
time step continuity errors : sum local = 2.35271e-10, global = -1.28756e-21, cumulative = 3.42992e-21
DICPCG:  Solving for p, Initial residual = 0.898064, Final residual = 9.9802e-07, No Iterations 1517
linear solve p 147219033
time step continuity errors : sum local = 2.4066e-10, global = -1.68708e-22, cumulative = 3.26122e-21
ExecutionTime = 614.49 s  ClockTime = 617 s

Time = 0.00075

Courant Number mean: 0.0403189 max: 1.11046
DILUPBiCGStab:  Solving for Ux, Initial residual = 0.0633126, Final residual = 0.0121648, No Iterations 5
DILUPBiCGStab:  Solving for Uy, Initial residual = 0.446949, Final residual = 0.0625727, No Iterations 5
DILUPBiCGStab:  Solving for Uz, Initial residual = 0.830672, Final residual = 0.161639, No Iterations 5
linear solve U 3710964
DICPCG:  Solving for p, Initial residual = 0.971216, Final residual = 9.73863e-07, No Iterations 937
linear solve p 90929367
time step continuity errors : sum local = 4.10287e-10, global = -2.82114e-23, cumulative = 3.233e-21
DICPCG:  Solving for p, Initial residual = 0.933494, Final residual = 9.77756e-07, No Iterations 905
linear solve p 87840186
time step continuity errors : sum local = 3.86256e-10, global = -1.09058e-21, cumulative = 2.14242e-21
ExecutionTime = 798.93 s  ClockTime = 803 s

End

Finalising parallel run
================================================================================
