hash: dd9fc59618ea3ff45b7ff003de2bec19
/*---------------------------------------------------------------------------*\
| =========                 |                                                 |
| \\      /  F ield         | OpenFOAM: The Open Source CFD Toolbox           |
|  \\    /   O peration     | Version:  2112                                  |
|   \\  /    A nd           | Website:  www.openfoam.com                      |
|    \\/     M anipulation  |                                                 |
\*---------------------------------------------------------------------------*/
Build  : d44c8318f0-20220111 OPENFOAM=2112 version=v2112
Arch   : "LSB;label=32;scalar=64"
Exec   : icoFoam -parallel
Date   : Oct 08 2022
Time   : 09:29:46
Host   : hkn0734.localdomain
PID    : 2912222
I/O    : uncollated
Case   : /hkfs/work/workspace/scratch/eq4036-lidDrivenCavity/multi_node/mesh/500/matrix_solver/CG_NoPrecond_PETSC_CUDA/mpiRank_of/4/base
nProcs : 4
Hosts  :
(
    (hkn0734.localdomain 4)
)
Pstream initialized with:
    floatTransfer      : 0
    nProcsSimpleSum    : 0
    commsType          : nonBlocking
    polling iterations : 0
trapFpe: Floating point exception trapping enabled (FOAM_SIGFPE).
fileModificationChecking : Monitoring run-time modified files using timeStampMaster (fileModificationSkew 5, maxFileModificationPolls 20)
allowSystemOperations : Allowing user-supplied system call operations

// * * * * * * * * * * * * * * * * * * * * * * * * * * * * * * * * * * * * * //
Create time

Create mesh for time = 0


PISO: Operating solver in PISO mode

Reading transportProperties

Reading field p

Reading field U

Reading/calculating face flux field phi


Starting time loop

Time = 2e-05

Courant Number mean: 0 max: 0
DILUPBiCGStab:  Solving for Ux, Initial residual = 1, Final residual = 0.00221092, No Iterations 5
DILUPBiCGStab:  Solving for Uy:  solution singularity
DILUPBiCGStab:  Solving for Uz:  solution singularity
linear solve U 22051608
Initializing PETSc
PETSc-cg:  Solving for p, Initial residual = 1, Final residual = 9.99739e-05, No Iterations 4109
linear solve p 37008679
time step continuity errors : sum local = 1.7324e-10, global = 1.77214e-22, cumulative = 1.77214e-22
PETSc-cg:  Solving for p, Initial residual = 0.736007, Final residual = 9.8917e-05, No Iterations 4060
linear solve p 30173266
time step continuity errors : sum local = 2.26726e-10, global = 6.92538e-25, cumulative = 1.77906e-22
ExecutionTime = 226.96 s  ClockTime = 228 s

Time = 4e-05

Courant Number mean: 0.00105578 max: 0.0776342
DILUPBiCGStab:  Solving for Ux, Initial residual = 0.150267, Final residual = 0.00132891, No Iterations 5
DILUPBiCGStab:  Solving for Uy, Initial residual = 0.356029, Final residual = 0.00130322, No Iterations 5
DILUPBiCGStab:  Solving for Uz, Initial residual = 0.997746, Final residual = 0.00574373, No Iterations 5
linear solve U 60425368
PETSc-cg:  Solving for p, Initial residual = 0.70084, Final residual = 9.91961e-05, No Iterations 3989
linear solve p 29603225
time step continuity errors : sum local = 2.62241e-10, global = 6.22513e-23, cumulative = 2.40158e-22
PETSc-cg:  Solving for p, Initial residual = 0.633711, Final residual = 9.85645e-05, No Iterations 3983
linear solve p 29556414
time step continuity errors : sum local = 2.64562e-10, global = -1.43204e-23, cumulative = 2.25837e-22
ExecutionTime = 377.94 s  ClockTime = 380 s

Time = 6e-05

Courant Number mean: 0.00160706 max: 0.0884744
DILUPBiCGStab:  Solving for Ux, Initial residual = 0.0623709, Final residual = 0.000361964, No Iterations 5
DILUPBiCGStab:  Solving for Uy, Initial residual = 0.140295, Final residual = 0.000268614, No Iterations 5
DILUPBiCGStab:  Solving for Uz, Initial residual = 0.664421, Final residual = 0.00420432, No Iterations 5
linear solve U 60688293
PETSc-cg:  Solving for p, Initial residual = 0.651723, Final residual = 9.98211e-05, No Iterations 3948
linear solve p 29212917
time step continuity errors : sum local = 1.94567e-10, global = 4.56781e-23, cumulative = 2.71515e-22
PETSc-cg:  Solving for p, Initial residual = 0.599058, Final residual = 9.91727e-05, No Iterations 3944
linear solve p 29214469
time step continuity errors : sum local = 1.89091e-10, global = 2.37785e-24, cumulative = 2.73893e-22
ExecutionTime = 528.4 s  ClockTime = 530 s

Time = 8e-05

Courant Number mean: 0.00199289 max: 0.091381
DILUPBiCGStab:  Solving for Ux, Initial residual = 0.0414949, Final residual = 0.000170923, No Iterations 5
DILUPBiCGStab:  Solving for Uy, Initial residual = 0.0887197, Final residual = 0.000153707, No Iterations 5
DILUPBiCGStab:  Solving for Uz, Initial residual = 0.161612, Final residual = 0.000703895, No Iterations 5
linear solve U 44824097
PETSc-cg:  Solving for p, Initial residual = 0.425676, Final residual = 9.99181e-05, No Iterations 1860
linear solve p 14628771
time step continuity errors : sum local = 1.69237e-10, global = 1.14425e-23, cumulative = 2.85336e-22
PETSc-cg:  Solving for p, Initial residual = 0.36359, Final residual = 9.86815e-05, No Iterations 1844
linear solve p 14548387
time step continuity errors : sum local = 1.62612e-10, global = -3.5729e-23, cumulative = 2.49607e-22
ExecutionTime = 633.67 s  ClockTime = 636 s

Time = 0.0001

Courant Number mean: 0.00230673 max: 0.0927871
DILUPBiCGStab:  Solving for Ux, Initial residual = 0.0318091, Final residual = 9.03087e-05, No Iterations 5
DILUPBiCGStab:  Solving for Uy, Initial residual = 0.0636391, Final residual = 8.50456e-05, No Iterations 5
DILUPBiCGStab:  Solving for Uz, Initial residual = 0.0932162, Final residual = 0.000346127, No Iterations 5
linear solve U 44822311
PETSc-cg:  Solving for p, Initial residual = 0.328947, Final residual = 9.98917e-05, No Iterations 1809
linear solve p 14271455
time step continuity errors : sum local = 1.36149e-10, global = -4.37041e-23, cumulative = 2.05903e-22
PETSc-cg:  Solving for p, Initial residual = 0.282461, Final residual = 9.78964e-05, No Iterations 1803
linear solve p 14227166
time step continuity errors : sum local = 1.3061e-10, global = -3.59524e-23, cumulative = 1.6995e-22
ExecutionTime = 738.19 s  ClockTime = 741 s

Time = 0.00012

Courant Number mean: 0.00257532 max: 0.0936647
DILUPBiCGStab:  Solving for Ux, Initial residual = 0.0259289, Final residual = 6.65547e-05, No Iterations 5
DILUPBiCGStab:  Solving for Uy, Initial residual = 0.0500418, Final residual = 4.60832e-05, No Iterations 5
DILUPBiCGStab:  Solving for Uz, Initial residual = 0.0827553, Final residual = 0.000326521, No Iterations 5
linear solve U 44805508
PETSc-cg:  Solving for p, Initial residual = 0.208514, Final residual = 9.98213e-05, No Iterations 1844
linear solve p 14514953
time step continuity errors : sum local = 1.37673e-10, global = -1.96957e-23, cumulative = 1.50254e-22
PETSc-cg:  Solving for p, Initial residual = 0.174325, Final residual = 9.94503e-05, No Iterations 1753
linear solve p 13877787
time step continuity errors : sum local = 1.30326e-10, global = 1.21239e-23, cumulative = 1.62378e-22
ExecutionTime = 842.62 s  ClockTime = 846 s

Time = 0.00014

Courant Number mean: 0.00281282 max: 0.0942765
DILUPBiCGStab:  Solving for Ux, Initial residual = 0.0220055, Final residual = 4.61582e-05, No Iterations 5
DILUPBiCGStab:  Solving for Uy, Initial residual = 0.0411252, Final residual = 3.51571e-05, No Iterations 5
DILUPBiCGStab:  Solving for Uz, Initial residual = 0.0690882, Final residual = 0.000195728, No Iterations 5
linear solve U 44808404
PETSc-cg:  Solving for p, Initial residual = 0.151156, Final residual = 9.98917e-05, No Iterations 1810
linear solve p 14275080
time step continuity errors : sum local = 1.29418e-10, global = -3.9409e-23, cumulative = 1.22969e-22
PETSc-cg:  Solving for p, Initial residual = 0.127227, Final residual = 9.72166e-05, No Iterations 1794
linear solve p 14163353
time step continuity errors : sum local = 1.19722e-10, global = -5.09329e-23, cumulative = 7.20365e-23
ExecutionTime = 946.89 s  ClockTime = 950 s

Time = 0.00016

Courant Number mean: 0.00302701 max: 0.094736
DILUPBiCGStab:  Solving for Ux, Initial residual = 0.0191815, Final residual = 3.45741e-05, No Iterations 5
DILUPBiCGStab:  Solving for Uy, Initial residual = 0.0349051, Final residual = 1.75662e-05, No Iterations 5
DILUPBiCGStab:  Solving for Uz, Initial residual = 0.0633454, Final residual = 0.000151498, No Iterations 5
linear solve U 44792160
PETSc-cg:  Solving for p, Initial residual = 0.0999369, Final residual = 9.84113e-05, No Iterations 3828
linear solve p 28401628
time step continuity errors : sum local = 1.16405e-10, global = 6.85064e-24, cumulative = 7.88871e-23
PETSc-cg:  Solving for p, Initial residual = 0.0833387, Final residual = 9.81271e-05, No Iterations 3824
linear solve p 28375950
time step continuity errors : sum local = 1.16008e-10, global = -4.13882e-24, cumulative = 7.47483e-23
ExecutionTime = 1079.52 s  ClockTime = 1083 s

Time = 0.00018

Courant Number mean: 0.00322308 max: 0.0950968
DILUPBiCGStab:  Solving for Ux, Initial residual = 0.017011, Final residual = 2.57343e-05, No Iterations 5
DILUPBiCGStab:  Solving for Uy, Initial residual = 0.0303429, Final residual = 1.57469e-05, No Iterations 5
DILUPBiCGStab:  Solving for Uz, Initial residual = 0.0524256, Final residual = 9.69598e-05, No Iterations 5
linear solve U 44776884
PETSc-cg:  Solving for p, Initial residual = 0.0755899, Final residual = 9.97993e-05, No Iterations 1611
linear solve p 12881171
time step continuity errors : sum local = 1.19842e-10, global = 7.5641e-23, cumulative = 1.50389e-22
PETSc-cg:  Solving for p, Initial residual = 0.0634095, Final residual = 9.9949e-05, No Iterations 1602
linear solve p 12818440
time step continuity errors : sum local = 1.17852e-10, global = -6.90535e-23, cumulative = 8.13358e-23
ExecutionTime = 1181.1 s  ClockTime = 1185 s

Time = 0.0002

Courant Number mean: 0.00340444 max: 0.0953899
DILUPBiCGStab:  Solving for Ux, Initial residual = 0.0153133, Final residual = 2.02399e-05, No Iterations 5
DILUPBiCGStab:  Solving for Uy, Initial residual = 0.0268126, Final residual = 8.97208e-06, No Iterations 5
DILUPBiCGStab:  Solving for Uz, Initial residual = 0.048172, Final residual = 7.29014e-05, No Iterations 5
linear solve U 44754613
PETSc-cg:  Solving for p, Initial residual = 0.0507707, Final residual = 9.9534e-05, No Iterations 1696
linear solve p 13508593
time step continuity errors : sum local = 1.20237e-10, global = 6.66573e-23, cumulative = 1.47993e-22
PETSc-cg:  Solving for p, Initial residual = 0.043164, Final residual = 9.95717e-05, No Iterations 1617
linear solve p 12926577
time step continuity errors : sum local = 1.15755e-10, global = 3.65448e-23, cumulative = 1.84538e-22
ExecutionTime = 1283.52 s  ClockTime = 1288 s

Time = 0.00022

Courant Number mean: 0.00357362 max: 0.0956344
DILUPBiCGStab:  Solving for Ux, Initial residual = 0.0139244, Final residual = 1.60179e-05, No Iterations 5
DILUPBiCGStab:  Solving for Uy, Initial residual = 0.0240348, Final residual = 8.179e-06, No Iterations 5
DILUPBiCGStab:  Solving for Uz, Initial residual = 0.0441965, Final residual = 6.79692e-05, No Iterations 5
linear solve U 44812337
PETSc-cg:  Solving for p, Initial residual = 0.0405475, Final residual = 9.96617e-05, No Iterations 1782
linear solve p 14105160
time step continuity errors : sum local = 1.21377e-10, global = 2.07111e-23, cumulative = 2.05249e-22
PETSc-cg:  Solving for p, Initial residual = 0.0345175, Final residual = 9.92899e-05, No Iterations 1717
linear solve p 13625390
time step continuity errors : sum local = 1.15942e-10, global = -4.26189e-23, cumulative = 1.6263e-22
ExecutionTime = 1387.11 s  ClockTime = 1392 s

Time = 0.00024

Courant Number mean: 0.0037325 max: 0.095842
DILUPBiCGStab:  Solving for Ux, Initial residual = 0.0127887, Final residual = 1.31322e-05, No Iterations 5
DILUPBiCGStab:  Solving for Uy, Initial residual = 0.0217434, Final residual = 5.6181e-06, No Iterations 5
DILUPBiCGStab:  Solving for Uz, Initial residual = 0.0415668, Final residual = 6.59199e-05, No Iterations 5
linear solve U 44710572
PETSc-cg:  Solving for p, Initial residual = 0.029277, Final residual = 9.97271e-05, No Iterations 3678
linear solve p 27354862
time step continuity errors : sum local = 1.13266e-10, global = -1.68764e-23, cumulative = 1.45754e-22
PETSc-cg:  Solving for p, Initial residual = 0.0258032, Final residual = 9.85202e-05, No Iterations 3674
linear solve p 27320245
time step continuity errors : sum local = 1.11953e-10, global = 8.08837e-23, cumulative = 2.26637e-22
ExecutionTime = 1517.68 s  ClockTime = 1522 s

Time = 0.00026

Courant Number mean: 0.00388256 max: 0.0960213
DILUPBiCGStab:  Solving for Ux, Initial residual = 0.0118178, Final residual = 1.08469e-05, No Iterations 5
DILUPBiCGStab:  Solving for Uy, Initial residual = 0.0198695, Final residual = 5.0123e-06, No Iterations 5
DILUPBiCGStab:  Solving for Uz, Initial residual = 0.0362409, Final residual = 4.32842e-05, No Iterations 5
linear solve U 44769731
PETSc-cg:  Solving for p, Initial residual = 0.0245705, Final residual = 9.93244e-05, No Iterations 1522
linear solve p 12297965
time step continuity errors : sum local = 1.15545e-10, global = 1.39628e-23, cumulative = 2.406e-22
PETSc-cg:  Solving for p, Initial residual = 0.0216851, Final residual = 9.92948e-05, No Iterations 1513
linear solve p 12198058
time step continuity errors : sum local = 1.13682e-10, global = -1.70523e-23, cumulative = 2.23548e-22
ExecutionTime = 1618.17 s  ClockTime = 1623 s

Time = 0.00028

Courant Number mean: 0.00402486 max: 0.0961782
DILUPBiCGStab:  Solving for Ux, Initial residual = 0.0109935, Final residual = 9.15438e-06, No Iterations 5
DILUPBiCGStab:  Solving for Uy, Initial residual = 0.0182776, Final residual = 3.96018e-06, No Iterations 5
DILUPBiCGStab:  Solving for Uz, Initial residual = 0.0344107, Final residual = 3.54628e-05, No Iterations 5
linear solve U 44681740
PETSc-cg:  Solving for p, Initial residual = 0.0193744, Final residual = 9.97023e-05, No Iterations 1575
linear solve p 12665475
time step continuity errors : sum local = 1.17237e-10, global = -1.01351e-22, cumulative = 1.22197e-22
PETSc-cg:  Solving for p, Initial residual = 0.017607, Final residual = 9.95017e-05, No Iterations 1524
linear solve p 12270797
time step continuity errors : sum local = 1.13654e-10, global = 2.4977e-24, cumulative = 1.24695e-22
ExecutionTime = 1718.83 s  ClockTime = 1724 s

Time = 0.0003

Courant Number mean: 0.00416031 max: 0.0963169
DILUPBiCGStab:  Solving for Ux, Initial residual = 0.0102737, Final residual = 7.80449e-06, No Iterations 5
DILUPBiCGStab:  Solving for Uy, Initial residual = 0.0169332, Final residual = 3.57381e-06, No Iterations 5
DILUPBiCGStab:  Solving for Uz, Initial residual = 0.0322125, Final residual = 3.69646e-05, No Iterations 5
linear solve U 44752676
PETSc-cg:  Solving for p, Initial residual = 0.0167118, Final residual = 9.91748e-05, No Iterations 1704
linear solve p 13530363
time step continuity errors : sum local = 1.17962e-10, global = -1.117e-23, cumulative = 1.13525e-22
PETSc-cg:  Solving for p, Initial residual = 0.0152505, Final residual = 9.98854e-05, No Iterations 1672
linear solve p 13308325
time step continuity errors : sum local = 1.14828e-10, global = -1.08399e-22, cumulative = 5.12626e-24
ExecutionTime = 1821.58 s  ClockTime = 1827 s

Time = 0.00032

Courant Number mean: 0.00428975 max: 0.0964408
DILUPBiCGStab:  Solving for Ux, Initial residual = 0.00965275, Final residual = 6.74386e-06, No Iterations 5
DILUPBiCGStab:  Solving for Uy, Initial residual = 0.0157522, Final residual = 3.07023e-06, No Iterations 5
DILUPBiCGStab:  Solving for Uz, Initial residual = 0.0308663, Final residual = 3.8916e-05, No Iterations 5
linear solve U 44755125
PETSc-cg:  Solving for p, Initial residual = 0.014312, Final residual = 9.83681e-05, No Iterations 1714
linear solve p 13598436
time step continuity errors : sum local = 1.19469e-10, global = -4.07645e-23, cumulative = -3.56382e-23
PETSc-cg:  Solving for p, Initial residual = 0.0133441, Final residual = 9.97138e-05, No Iterations 1626
linear solve p 12988081
time step continuity errors : sum local = 1.14923e-10, global = 6.63797e-23, cumulative = 3.07415e-23
ExecutionTime = 1924.19 s  ClockTime = 1930 s

Time = 0.00034

Courant Number mean: 0.00441375 max: 0.0965522
DILUPBiCGStab:  Solving for Ux, Initial residual = 0.00909359, Final residual = 5.88734e-06, No Iterations 5
DILUPBiCGStab:  Solving for Uy, Initial residual = 0.0147466, Final residual = 2.81011e-06, No Iterations 5
DILUPBiCGStab:  Solving for Uz, Initial residual = 0.0292126, Final residual = 3.93143e-05, No Iterations 5
linear solve U 44784871
PETSc-cg:  Solving for p, Initial residual = 0.0129421, Final residual = 9.97236e-05, No Iterations 1725
linear solve p 13709777
time step continuity errors : sum local = 1.23891e-10, global = -7.39489e-23, cumulative = -4.32075e-23
PETSc-cg:  Solving for p, Initial residual = 0.0121615, Final residual = 9.98729e-05, No Iterations 1661
linear solve p 13232773
time step continuity errors : sum local = 1.16315e-10, global = -4.65093e-23, cumulative = -8.97167e-23
ExecutionTime = 2027.14 s  ClockTime = 2033 s

Time = 0.00036

Courant Number mean: 0.0045328 max: 0.0966531
DILUPBiCGStab:  Solving for Ux, Initial residual = 0.0086101, Final residual = 5.20345e-06, No Iterations 5
DILUPBiCGStab:  Solving for Uy, Initial residual = 0.0138286, Final residual = 2.5607e-06, No Iterations 5
DILUPBiCGStab:  Solving for Uz, Initial residual = 0.0282288, Final residual = 4.29818e-05, No Iterations 5
linear solve U 44739988
PETSc-cg:  Solving for p, Initial residual = 0.0116921, Final residual = 9.97529e-05, No Iterations 3658
linear solve p 27214006
time step continuity errors : sum local = 1.12642e-10, global = -2.88265e-23, cumulative = -1.18543e-22
PETSc-cg:  Solving for p, Initial residual = 0.0110701, Final residual = 9.75113e-05, No Iterations 3654
linear solve p 27183362
time step continuity errors : sum local = 1.10146e-10, global = 3.30705e-23, cumulative = -8.54726e-23
ExecutionTime = 2157.36 s  ClockTime = 2164 s

Time = 0.00038

Courant Number mean: 0.00464746 max: 0.0967452
DILUPBiCGStab:  Solving for Ux, Initial residual = 0.00816384, Final residual = 4.62475e-06, No Iterations 5
DILUPBiCGStab:  Solving for Uy, Initial residual = 0.0130401, Final residual = 2.19876e-06, No Iterations 5
DILUPBiCGStab:  Solving for Uz, Initial residual = 0.0250397, Final residual = 3.07658e-05, No Iterations 5
linear solve U 44821188
PETSc-cg:  Solving for p, Initial residual = 0.0110387, Final residual = 9.88166e-05, No Iterations 1466
linear solve p 11898834
time step continuity errors : sum local = 1.17088e-10, global = 6.81473e-23, cumulative = -1.73254e-23
PETSc-cg:  Solving for p, Initial residual = 0.010504, Final residual = 9.94417e-05, No Iterations 1452
linear solve p 11767174
time step continuity errors : sum local = 1.14414e-10, global = -6.89274e-24, cumulative = -2.42181e-23
ExecutionTime = 2257.01 s  ClockTime = 2264 s

Time = 0.0004

Courant Number mean: 0.00475798 max: 0.0968295
DILUPBiCGStab:  Solving for Ux, Initial residual = 0.00776824, Final residual = 4.15879e-06, No Iterations 5
DILUPBiCGStab:  Solving for Uy, Initial residual = 0.012322, Final residual = 2.07937e-06, No Iterations 5
DILUPBiCGStab:  Solving for Uz, Initial residual = 0.0243011, Final residual = 2.67284e-05, No Iterations 5
linear solve U 44658561
PETSc-cg:  Solving for p, Initial residual = 0.0100367, Final residual = 9.9545e-05, No Iterations 1624
linear solve p 13004113
time step continuity errors : sum local = 1.19102e-10, global = 4.46931e-23, cumulative = 2.0475e-23
PETSc-cg:  Solving for p, Initial residual = 0.00958149, Final residual = 9.95634e-05, No Iterations 1489
linear solve p 12027899
time step continuity errors : sum local = 1.14005e-10, global = -7.17313e-23, cumulative = -5.12563e-23
ExecutionTime = 2357.76 s  ClockTime = 2365 s

End

Finalizing PETSc
Finalising parallel run
================================================================================
hash: a50ca4d5e101867bab34e26bfdbd4683
[1665214185.385225] [hkn0735:2460676:0]           ib_md.c:1234 UCX  WARN  IB: ibv_fork_init() was disabled or failed, yet a fork() has been issued.
[1665214185.385256] [hkn0735:2460676:0]           ib_md.c:1235 UCX  WARN  IB: data corruption might occur when using registered memory.
[1665214185.388296] [hkn0735:2460676:0]           ib_md.c:1234 UCX  WARN  IB: ibv_fork_init() was disabled or failed, yet a fork() has been issued.
[1665214185.388304] [hkn0735:2460676:0]           ib_md.c:1235 UCX  WARN  IB: data corruption might occur when using registered memory.
[1665214185.592439] [hkn0735:2460677:0]           ib_md.c:1234 UCX  WARN  IB: ibv_fork_init() was disabled or failed, yet a fork() has been issued.
[1665214185.592454] [hkn0735:2460677:0]           ib_md.c:1235 UCX  WARN  IB: data corruption might occur when using registered memory.
[1665214185.594819] [hkn0735:2460677:0]           ib_md.c:1234 UCX  WARN  IB: ibv_fork_init() was disabled or failed, yet a fork() has been issued.
[1665214185.594828] [hkn0735:2460677:0]           ib_md.c:1235 UCX  WARN  IB: data corruption might occur when using registered memory.
[1665214185.868375] [hkn0735:2460678:0]           ib_md.c:1234 UCX  WARN  IB: ibv_fork_init() was disabled or failed, yet a fork() has been issued.
[1665214185.868389] [hkn0735:2460678:0]           ib_md.c:1235 UCX  WARN  IB: data corruption might occur when using registered memory.
[1665214185.870700] [hkn0735:2460678:0]           ib_md.c:1234 UCX  WARN  IB: ibv_fork_init() was disabled or failed, yet a fork() has been issued.
[1665214185.870708] [hkn0735:2460678:0]           ib_md.c:1235 UCX  WARN  IB: data corruption might occur when using registered memory.
[1665214186.212036] [hkn0735:2460675:0]           ib_md.c:1234 UCX  WARN  IB: ibv_fork_init() was disabled or failed, yet a fork() has been issued.
[1665214186.212051] [hkn0735:2460675:0]           ib_md.c:1235 UCX  WARN  IB: data corruption might occur when using registered memory.
[1665214186.214279] [hkn0735:2460675:0]           ib_md.c:1234 UCX  WARN  IB: ibv_fork_init() was disabled or failed, yet a fork() has been issued.
[1665214186.214288] [hkn0735:2460675:0]           ib_md.c:1235 UCX  WARN  IB: data corruption might occur when using registered memory.
/*---------------------------------------------------------------------------*\
| =========                 |                                                 |
| \\      /  F ield         | OpenFOAM: The Open Source CFD Toolbox           |
|  \\    /   O peration     | Version:  2112                                  |
|   \\  /    A nd           | Website:  www.openfoam.com                      |
|    \\/     M anipulation  |                                                 |
\*---------------------------------------------------------------------------*/
Build  : d44c8318f0-20220111 OPENFOAM=2112 version=v2112
Arch   : "LSB;label=32;scalar=64"
Exec   : icoFoam -parallel
Date   : Oct 08 2022
Time   : 09:29:46
Host   : hkn0620.localdomain
PID    : 3344686
I/O    : uncollated
Case   : /hkfs/work/workspace/scratch/eq4036-lidDrivenCavity/multi_node/mesh/500/matrix_solver/CG_NoPrecond_PETSC_CUDA/mpiRank_of/40/base
nProcs : 40
Hosts  :
(
    (hkn0620.localdomain 4)
    (hkn0621.localdomain 4)
    (hkn0622.localdomain 4)
    (hkn0624.localdomain 4)
    (hkn0630.localdomain 4)
    (hkn0631.localdomain 4)
    (hkn0633.localdomain 4)
    (hkn0634.localdomain 4)
    (hkn0735.localdomain 4)
    (hkn0736.localdomain 4)
)
Pstream initialized with:
    floatTransfer      : 0
    nProcsSimpleSum    : 0
    commsType          : nonBlocking
    polling iterations : 0
trapFpe: Floating point exception trapping enabled (FOAM_SIGFPE).
fileModificationChecking : Monitoring run-time modified files using timeStampMaster (fileModificationSkew 5, maxFileModificationPolls 20)
allowSystemOperations : Allowing user-supplied system call operations

// * * * * * * * * * * * * * * * * * * * * * * * * * * * * * * * * * * * * * //
Create time

Create mesh for time = 0


PISO: Operating solver in PISO mode

Reading transportProperties

Reading field p

Reading field U

Reading/calculating face flux field phi


Starting time loop

Time = 2e-05

Courant Number mean: 0 max: 0
DILUPBiCGStab:  Solving for Ux, Initial residual = 1, Final residual = 0.00251818, No Iterations 5
DILUPBiCGStab:  Solving for Uy:  solution singularity
DILUPBiCGStab:  Solving for Uz:  solution singularity
linear solve U 2143718
Initializing PETSc
PETSc-cg:  Solving for p, Initial residual = 1, Final residual = 9.99214e-05, No Iterations 4106
linear solve p 22639435
time step continuity errors : sum local = 1.7729e-10, global = -1.90589e-22, cumulative = -1.90589e-22
PETSc-cg:  Solving for p, Initial residual = 0.739115, Final residual = 9.82971e-05, No Iterations 4060
linear solve p 19612820
time step continuity errors : sum local = 2.29591e-10, global = -1.73078e-23, cumulative = -2.07896e-22
ExecutionTime = 58.06 s  ClockTime = 60 s

Time = 4e-05

Courant Number mean: 0.0010549 max: 0.0776084
DILUPBiCGStab:  Solving for Ux, Initial residual = 0.150286, Final residual = 0.00163729, No Iterations 5
DILUPBiCGStab:  Solving for Uy, Initial residual = 0.356221, Final residual = 0.00201678, No Iterations 5
DILUPBiCGStab:  Solving for Uz, Initial residual = 0.994357, Final residual = 0.00747303, No Iterations 5
linear solve U 4329270
PETSc-cg:  Solving for p, Initial residual = 0.71416, Final residual = 9.96431e-05, No Iterations 3987
linear solve p 19246483
time step continuity errors : sum local = 2.75824e-10, global = -6.46869e-23, cumulative = -2.72583e-22
PETSc-cg:  Solving for p, Initial residual = 0.64696, Final residual = 9.83628e-05, No Iterations 3981
linear solve p 19221001
time step continuity errors : sum local = 2.76572e-10, global = -6.37853e-23, cumulative = -3.36369e-22
ExecutionTime = 103.92 s  ClockTime = 105 s

Time = 6e-05

Courant Number mean: 0.00160592 max: 0.0884734
DILUPBiCGStab:  Solving for Ux, Initial residual = 0.0624116, Final residual = 0.000448687, No Iterations 5
DILUPBiCGStab:  Solving for Uy, Initial residual = 0.140401, Final residual = 0.000476177, No Iterations 5
DILUPBiCGStab:  Solving for Uz, Initial residual = 0.671409, Final residual = 0.00577749, No Iterations 5
linear solve U 4327735
PETSc-cg:  Solving for p, Initial residual = 0.660158, Final residual = 9.88307e-05, No Iterations 3948
linear solve p 19075239
time step continuity errors : sum local = 1.97593e-10, global = -1.48692e-24, cumulative = -3.37856e-22
PETSc-cg:  Solving for p, Initial residual = 0.606585, Final residual = 9.93587e-05, No Iterations 3945
linear solve p 19057372
time step continuity errors : sum local = 1.94157e-10, global = -6.89249e-23, cumulative = -4.06781e-22
ExecutionTime = 149.48 s  ClockTime = 151 s

Time = 8e-05

Courant Number mean: 0.00199162 max: 0.0913753
DILUPBiCGStab:  Solving for Ux, Initial residual = 0.0415228, Final residual = 0.000221573, No Iterations 5
DILUPBiCGStab:  Solving for Uy, Initial residual = 0.088783, Final residual = 0.000276685, No Iterations 5
DILUPBiCGStab:  Solving for Uz, Initial residual = 0.163867, Final residual = 0.000941447, No Iterations 5
linear solve U 4336762
PETSc-cg:  Solving for p, Initial residual = 0.437946, Final residual = 9.89488e-05, No Iterations 1859
linear solve p 9076136
time step continuity errors : sum local = 1.71293e-10, global = -9.70623e-23, cumulative = -5.03843e-22
PETSc-cg:  Solving for p, Initial residual = 0.375505, Final residual = 9.97205e-05, No Iterations 1844
linear solve p 9001814
time step continuity errors : sum local = 1.67983e-10, global = -5.54428e-23, cumulative = -5.59286e-22
ExecutionTime = 175.01 s  ClockTime = 177 s

Time = 0.0001

Courant Number mean: 0.00230541 max: 0.0927869
DILUPBiCGStab:  Solving for Ux, Initial residual = 0.031832, Final residual = 0.000129838, No Iterations 5
DILUPBiCGStab:  Solving for Uy, Initial residual = 0.0636812, Final residual = 0.000163813, No Iterations 5
DILUPBiCGStab:  Solving for Uz, Initial residual = 0.0951149, Final residual = 0.000525474, No Iterations 5
linear solve U 4345000
PETSc-cg:  Solving for p, Initial residual = 0.340806, Final residual = 9.94879e-05, No Iterations 1809
linear solve p 8833521
time step continuity errors : sum local = 1.38091e-10, global = -3.13512e-23, cumulative = -5.90637e-22
PETSc-cg:  Solving for p, Initial residual = 0.293495, Final residual = 9.92239e-05, No Iterations 1803
linear solve p 8799194
time step continuity errors : sum local = 1.34754e-10, global = -9.00518e-23, cumulative = -6.80689e-22
ExecutionTime = 200.11 s  ClockTime = 202 s

Time = 0.00012

Courant Number mean: 0.00257397 max: 0.0936638
DILUPBiCGStab:  Solving for Ux, Initial residual = 0.0259475, Final residual = 9.28976e-05, No Iterations 5
DILUPBiCGStab:  Solving for Uy, Initial residual = 0.0500733, Final residual = 7.72186e-05, No Iterations 5
DILUPBiCGStab:  Solving for Uz, Initial residual = 0.0842029, Final residual = 0.000449693, No Iterations 5
linear solve U 4340963
PETSc-cg:  Solving for p, Initial residual = 0.219148, Final residual = 9.98772e-05, No Iterations 1837
linear solve p 8966670
time step continuity errors : sum local = 1.3951e-10, global = -8.28302e-23, cumulative = -7.63519e-22
PETSc-cg:  Solving for p, Initial residual = 0.184561, Final residual = 9.96117e-05, No Iterations 1753
linear solve p 8565391
time step continuity errors : sum local = 1.32343e-10, global = -2.64708e-23, cumulative = -7.8999e-22
ExecutionTime = 225.08 s  ClockTime = 227 s

Time = 0.00014

Courant Number mean: 0.00281147 max: 0.0942766
DILUPBiCGStab:  Solving for Ux, Initial residual = 0.0220211, Final residual = 6.60626e-05, No Iterations 5
DILUPBiCGStab:  Solving for Uy, Initial residual = 0.0411485, Final residual = 6.1086e-05, No Iterations 5
DILUPBiCGStab:  Solving for Uz, Initial residual = 0.0702301, Final residual = 0.000288635, No Iterations 5
linear solve U 4341888
PETSc-cg:  Solving for p, Initial residual = 0.16031, Final residual = 9.88639e-05, No Iterations 1811
linear solve p 8851327
time step continuity errors : sum local = 1.2948e-10, global = 2.96989e-23, cumulative = -7.60291e-22
PETSc-cg:  Solving for p, Initial residual = 0.135675, Final residual = 9.88461e-05, No Iterations 1794
linear solve p 8761329
time step continuity errors : sum local = 1.23005e-10, global = -9.40741e-23, cumulative = -8.54365e-22
ExecutionTime = 250.15 s  ClockTime = 252 s

Time = 0.00016

Courant Number mean: 0.00302569 max: 0.0947361
DILUPBiCGStab:  Solving for Ux, Initial residual = 0.0191946, Final residual = 4.90528e-05, No Iterations 5
DILUPBiCGStab:  Solving for Uy, Initial residual = 0.0349237, Final residual = 3.65424e-05, No Iterations 5
DILUPBiCGStab:  Solving for Uz, Initial residual = 0.0642917, Final residual = 0.00022303, No Iterations 5
linear solve U 4345242
PETSc-cg:  Solving for p, Initial residual = 0.107582, Final residual = 9.9974e-05, No Iterations 3826
linear solve p 18491910
time step continuity errors : sum local = 1.19347e-10, global = -1.3405e-22, cumulative = -9.88415e-22
PETSc-cg:  Solving for p, Initial residual = 0.090766, Final residual = 9.86603e-05, No Iterations 3824
linear solve p 18478730
time step continuity errors : sum local = 1.1771e-10, global = -1.26615e-22, cumulative = -1.11503e-21
ExecutionTime = 294.56 s  ClockTime = 296 s

Time = 0.00018

Courant Number mean: 0.00322177 max: 0.0950971
DILUPBiCGStab:  Solving for Ux, Initial residual = 0.0170222, Final residual = 3.77138e-05, No Iterations 5
DILUPBiCGStab:  Solving for Uy, Initial residual = 0.0303574, Final residual = 3.32188e-05, No Iterations 5
DILUPBiCGStab:  Solving for Uz, Initial residual = 0.0532122, Final residual = 0.000143596, No Iterations 5
linear solve U 4340245
PETSc-cg:  Solving for p, Initial residual = 0.082079, Final residual = 9.92673e-05, No Iterations 1610
linear solve p 7886860
time step continuity errors : sum local = 1.20071e-10, global = -5.37024e-23, cumulative = -1.16873e-21
PETSc-cg:  Solving for p, Initial residual = 0.0696699, Final residual = 9.99955e-05, No Iterations 1601
linear solve p 7845908
time step continuity errors : sum local = 1.18756e-10, global = -1.30429e-22, cumulative = -1.29916e-21
ExecutionTime = 317.75 s  ClockTime = 320 s

Time = 0.0002

Courant Number mean: 0.00340315 max: 0.0953903
DILUPBiCGStab:  Solving for Ux, Initial residual = 0.015323, Final residual = 3.01636e-05, No Iterations 5
DILUPBiCGStab:  Solving for Uy, Initial residual = 0.0268245, Final residual = 2.53274e-05, No Iterations 5
DILUPBiCGStab:  Solving for Uz, Initial residual = 0.0488394, Final residual = 0.000111147, No Iterations 5
linear solve U 4345626
PETSc-cg:  Solving for p, Initial residual = 0.0567267, Final residual = 9.99617e-05, No Iterations 1696
linear solve p 8301112
time step continuity errors : sum local = 1.21435e-10, global = -9.53553e-23, cumulative = -1.39452e-21
PETSc-cg:  Solving for p, Initial residual = 0.0490934, Final residual = 9.97983e-05, No Iterations 1617
linear solve p 7926352
time step continuity errors : sum local = 1.16773e-10, global = -1.06326e-22, cumulative = -1.50084e-21
ExecutionTime = 341.44 s  ClockTime = 343 s

Time = 0.00022

Courant Number mean: 0.00357235 max: 0.0956347
DILUPBiCGStab:  Solving for Ux, Initial residual = 0.0139329, Final residual = 2.47298e-05, No Iterations 5
DILUPBiCGStab:  Solving for Uy, Initial residual = 0.0240444, Final residual = 2.33958e-05, No Iterations 5
DILUPBiCGStab:  Solving for Uz, Initial residual = 0.0447681, Final residual = 0.00010588, No Iterations 5
linear solve U 4343851
PETSc-cg:  Solving for p, Initial residual = 0.0458571, Final residual = 9.96539e-05, No Iterations 1783
linear solve p 8714188
time step continuity errors : sum local = 1.21951e-10, global = -4.76715e-23, cumulative = -1.54851e-21
PETSc-cg:  Solving for p, Initial residual = 0.0398132, Final residual = 9.93799e-05, No Iterations 1718
linear solve p 8405772
time step continuity errors : sum local = 1.16682e-10, global = -8.0517e-23, cumulative = -1.62903e-21
ExecutionTime = 366.02 s  ClockTime = 368 s

Time = 0.00024

Courant Number mean: 0.00373125 max: 0.0958424
DILUPBiCGStab:  Solving for Ux, Initial residual = 0.0127961, Final residual = 2.08978e-05, No Iterations 5
DILUPBiCGStab:  Solving for Uy, Initial residual = 0.0217519, Final residual = 2.04571e-05, No Iterations 5
DILUPBiCGStab:  Solving for Uz, Initial residual = 0.0420567, Final residual = 0.000102626, No Iterations 5
linear solve U 4340639
PETSc-cg:  Solving for p, Initial residual = 0.0343478, Final residual = 9.90574e-05, No Iterations 3678
linear solve p 17788258
time step continuity errors : sum local = 1.13132e-10, global = -2.75955e-23, cumulative = -1.65663e-21
PETSc-cg:  Solving for p, Initial residual = 0.0308888, Final residual = 9.9287e-05, No Iterations 3673
linear solve p 17743986
time step continuity errors : sum local = 1.13449e-10, global = -8.53096e-23, cumulative = -1.74194e-21
ExecutionTime = 408.99 s  ClockTime = 411 s

Time = 0.00026

Courant Number mean: 0.00388133 max: 0.0960216
DILUPBiCGStab:  Solving for Ux, Initial residual = 0.0118245, Final residual = 1.80088e-05, No Iterations 5
DILUPBiCGStab:  Solving for Uy, Initial residual = 0.0198766, Final residual = 1.88171e-05, No Iterations 5
DILUPBiCGStab:  Solving for Uz, Initial residual = 0.0366863, Final residual = 6.72044e-05, No Iterations 5
linear solve U 4346751
PETSc-cg:  Solving for p, Initial residual = 0.0292413, Final residual = 9.9926e-05, No Iterations 1524
linear solve p 7471927
time step continuity errors : sum local = 1.16751e-10, global = -1.04661e-22, cumulative = -1.8466e-21
PETSc-cg:  Solving for p, Initial residual = 0.0263986, Final residual = 9.99573e-05, No Iterations 1516
linear solve p 7431563
time step continuity errors : sum local = 1.14989e-10, global = -8.75229e-23, cumulative = -1.93412e-21
ExecutionTime = 431.35 s  ClockTime = 433 s

Time = 0.00028

Courant Number mean: 0.00402364 max: 0.0961785
DILUPBiCGStab:  Solving for Ux, Initial residual = 0.0109995, Final residual = 1.58729e-05, No Iterations 5
DILUPBiCGStab:  Solving for Uy, Initial residual = 0.0182839, Final residual = 1.70676e-05, No Iterations 5
DILUPBiCGStab:  Solving for Uz, Initial residual = 0.0347992, Final residual = 5.74188e-05, No Iterations 5
linear solve U 4348153
PETSc-cg:  Solving for p, Initial residual = 0.0235769, Final residual = 9.995e-05, No Iterations 1572
linear solve p 7696451
time step continuity errors : sum local = 1.17943e-10, global = -1.30532e-22, cumulative = -2.06465e-21
PETSc-cg:  Solving for p, Initial residual = 0.0218671, Final residual = 9.94133e-05, No Iterations 1528
linear solve p 7487900
time step continuity errors : sum local = 1.14045e-10, global = -1.04473e-23, cumulative = -2.0751e-21
ExecutionTime = 454 s  ClockTime = 456 s

Time = 0.0003

Courant Number mean: 0.00415911 max: 0.0963172
DILUPBiCGStab:  Solving for Ux, Initial residual = 0.0102791, Final residual = 1.42049e-05, No Iterations 5
DILUPBiCGStab:  Solving for Uy, Initial residual = 0.0169385, Final residual = 1.58104e-05, No Iterations 5
DILUPBiCGStab:  Solving for Uz, Initial residual = 0.0325526, Final residual = 6.093e-05, No Iterations 5
linear solve U 4339557
PETSc-cg:  Solving for p, Initial residual = 0.0208868, Final residual = 9.9646e-05, No Iterations 1705
linear solve p 8334258
time step continuity errors : sum local = 1.18867e-10, global = -7.57579e-23, cumulative = -2.15086e-21
PETSc-cg:  Solving for p, Initial residual = 0.0194971, Final residual = 9.9826e-05, No Iterations 1675
linear solve p 8203111
time step continuity errors : sum local = 1.15228e-10, global = -1.20066e-22, cumulative = -2.27092e-21
ExecutionTime = 477.99 s  ClockTime = 480 s

Time = 0.00032

Courant Number mean: 0.00428856 max: 0.0964411
DILUPBiCGStab:  Solving for Ux, Initial residual = 0.0096576, Final residual = 1.28804e-05, No Iterations 5
DILUPBiCGStab:  Solving for Uy, Initial residual = 0.0157572, Final residual = 1.46219e-05, No Iterations 5
DILUPBiCGStab:  Solving for Uz, Initial residual = 0.0311646, Final residual = 6.29516e-05, No Iterations 5
linear solve U 4342327
PETSc-cg:  Solving for p, Initial residual = 0.0182739, Final residual = 9.97053e-05, No Iterations 1714
linear solve p 8378642
time step continuity errors : sum local = 1.21252e-10, global = -8.75571e-23, cumulative = -2.35848e-21
PETSc-cg:  Solving for p, Initial residual = 0.0173508, Final residual = 9.99987e-05, No Iterations 1629
linear solve p 7974795
time step continuity errors : sum local = 1.15669e-10, global = 3.23115e-23, cumulative = -2.32617e-21
ExecutionTime = 501.8 s  ClockTime = 504 s

Time = 0.00034

Courant Number mean: 0.00441258 max: 0.0965525
DILUPBiCGStab:  Solving for Ux, Initial residual = 0.00909816, Final residual = 1.17846e-05, No Iterations 5
DILUPBiCGStab:  Solving for Uy, Initial residual = 0.0147506, Final residual = 1.37211e-05, No Iterations 5
DILUPBiCGStab:  Solving for Uz, Initial residual = 0.0294761, Final residual = 6.67394e-05, No Iterations 5
linear solve U 4340536
PETSc-cg:  Solving for p, Initial residual = 0.016806, Final residual = 9.95841e-05, No Iterations 1725
linear solve p 8434448
time step continuity errors : sum local = 1.23898e-10, global = -5.29416e-23, cumulative = -2.37911e-21
PETSc-cg:  Solving for p, Initial residual = 0.0160486, Final residual = 9.97903e-05, No Iterations 1665
linear solve p 8153903
time step continuity errors : sum local = 1.16594e-10, global = -8.6133e-23, cumulative = -2.46524e-21
ExecutionTime = 525.83 s  ClockTime = 528 s

Time = 0.00036

Courant Number mean: 0.00453164 max: 0.0966534
DILUPBiCGStab:  Solving for Ux, Initial residual = 0.00861409, Final residual = 1.08904e-05, No Iterations 5
DILUPBiCGStab:  Solving for Uy, Initial residual = 0.0138326, Final residual = 1.29111e-05, No Iterations 5
DILUPBiCGStab:  Solving for Uz, Initial residual = 0.0284541, Final residual = 6.94166e-05, No Iterations 5
linear solve U 4344854
PETSc-cg:  Solving for p, Initial residual = 0.0153169, Final residual = 9.97158e-05, No Iterations 3657
linear solve p 17676258
time step continuity errors : sum local = 1.13039e-10, global = -5.78204e-23, cumulative = -2.52306e-21
PETSc-cg:  Solving for p, Initial residual = 0.0147418, Final residual = 9.82683e-05, No Iterations 3654
linear solve p 17666318
time step continuity errors : sum local = 1.11432e-10, global = -7.68707e-23, cumulative = -2.59994e-21
ExecutionTime = 568.62 s  ClockTime = 571 s

Time = 0.00038

Courant Number mean: 0.00464631 max: 0.0967455
DILUPBiCGStab:  Solving for Ux, Initial residual = 0.00816764, Final residual = 1.0102e-05, No Iterations 5
DILUPBiCGStab:  Solving for Uy, Initial residual = 0.0130435, Final residual = 1.20648e-05, No Iterations 5
DILUPBiCGStab:  Solving for Uz, Initial residual = 0.0252772, Final residual = 4.98936e-05, No Iterations 5
linear solve U 4350544
PETSc-cg:  Solving for p, Initial residual = 0.0145755, Final residual = 9.98826e-05, No Iterations 1468
linear solve p 7208064
time step continuity errors : sum local = 1.18549e-10, global = -1.85524e-22, cumulative = -2.78546e-21
PETSc-cg:  Solving for p, Initial residual = 0.0140663, Final residual = 9.98956e-05, No Iterations 1454
linear solve p 7136400
time step continuity errors : sum local = 1.1529e-10, global = -9.08513e-23, cumulative = -2.87631e-21
ExecutionTime = 590.43 s  ClockTime = 593 s

Time = 0.0004

Courant Number mean: 0.00475684 max: 0.0968298
DILUPBiCGStab:  Solving for Ux, Initial residual = 0.0077717, Final residual = 9.42479e-06, No Iterations 5
DILUPBiCGStab:  Solving for Uy, Initial residual = 0.0123253, Final residual = 1.14059e-05, No Iterations 5
DILUPBiCGStab:  Solving for Uz, Initial residual = 0.024508, Final residual = 4.50425e-05, No Iterations 5
linear solve U 4343314
PETSc-cg:  Solving for p, Initial residual = 0.0134001, Final residual = 9.99362e-05, No Iterations 1625
linear solve p 7955177
time step continuity errors : sum local = 1.19735e-10, global = -1.66745e-22, cumulative = -3.04306e-21
PETSc-cg:  Solving for p, Initial residual = 0.0129795, Final residual = 9.95968e-05, No Iterations 1490
linear solve p 7311735
time step continuity errors : sum local = 1.14397e-10, global = -2.5338e-22, cumulative = -3.29644e-21
ExecutionTime = 613.15 s  ClockTime = 616 s

End

Finalizing PETSc
Finalising parallel run
================================================================================
hash: 4005b760cace5d0e1689dda810f4792b
/*---------------------------------------------------------------------------*\
| =========                 |                                                 |
| \\      /  F ield         | OpenFOAM: The Open Source CFD Toolbox           |
|  \\    /   O peration     | Version:  2112                                  |
|   \\  /    A nd           | Website:  www.openfoam.com                      |
|    \\/     M anipulation  |                                                 |
\*---------------------------------------------------------------------------*/
Build  : d44c8318f0-20220111 OPENFOAM=2112 version=v2112
Arch   : "LSB;label=32;scalar=64"
Exec   : icoFoam -parallel
Date   : Oct 08 2022
Time   : 09:37:10
Host   : hkn0718.localdomain
PID    : 1305238
I/O    : uncollated
Case   : /hkfs/work/workspace/scratch/eq4036-lidDrivenCavity/multi_node/mesh/500/matrix_solver/CG_NoPrecond_PETSC_CUDA/mpiRank_of/16/base
nProcs : 16
Hosts  :
(
    (hkn0718.localdomain 4)
    (hkn0719.localdomain 4)
    (hkn0720.localdomain 4)
    (hkn0721.localdomain 4)
)
Pstream initialized with:
    floatTransfer      : 0
    nProcsSimpleSum    : 0
    commsType          : nonBlocking
    polling iterations : 0
trapFpe: Floating point exception trapping enabled (FOAM_SIGFPE).
fileModificationChecking : Monitoring run-time modified files using timeStampMaster (fileModificationSkew 5, maxFileModificationPolls 20)
allowSystemOperations : Allowing user-supplied system call operations

// * * * * * * * * * * * * * * * * * * * * * * * * * * * * * * * * * * * * * //
Create time

Create mesh for time = 0


PISO: Operating solver in PISO mode

Reading transportProperties

Reading field p

Reading field U

Reading/calculating face flux field phi


Starting time loop

Time = 2e-05

Courant Number mean: 0 max: 0
DILUPBiCGStab:  Solving for Ux, Initial residual = 1, Final residual = 0.00248691, No Iterations 5
DILUPBiCGStab:  Solving for Uy:  solution singularity
DILUPBiCGStab:  Solving for Uz:  solution singularity
linear solve U 5489072
Initializing PETSc
PETSc-cg:  Solving for p, Initial residual = 1, Final residual = 9.99392e-05, No Iterations 4108
linear solve p 20537102
time step continuity errors : sum local = 1.75919e-10, global = 2.02484e-22, cumulative = 2.02484e-22
PETSc-cg:  Solving for p, Initial residual = 0.7381, Final residual = 9.90443e-05, No Iterations 4060
linear solve p 16925476
time step continuity errors : sum local = 2.29874e-10, global = 1.22537e-23, cumulative = 2.14737e-22
ExecutionTime = 78.12 s  ClockTime = 79 s

Time = 4e-05

Courant Number mean: 0.00105495 max: 0.0776398
DILUPBiCGStab:  Solving for Ux, Initial residual = 0.150282, Final residual = 0.00156921, No Iterations 5
DILUPBiCGStab:  Solving for Uy, Initial residual = 0.356216, Final residual = 0.00178472, No Iterations 5
DILUPBiCGStab:  Solving for Uz, Initial residual = 0.994594, Final residual = 0.00685007, No Iterations 5
linear solve U 17315623
PETSc-cg:  Solving for p, Initial residual = 0.70871, Final residual = 9.95105e-05, No Iterations 3989
linear solve p 16642550
time step continuity errors : sum local = 2.70255e-10, global = -2.99989e-23, cumulative = 1.84738e-22
PETSc-cg:  Solving for p, Initial residual = 0.641548, Final residual = 9.96419e-05, No Iterations 3981
linear solve p 16595829
time step continuity errors : sum local = 2.74806e-10, global = -3.2528e-23, cumulative = 1.5221e-22
ExecutionTime = 136.63 s  ClockTime = 138 s

Time = 6e-05

Courant Number mean: 0.00160603 max: 0.0884738
DILUPBiCGStab:  Solving for Ux, Initial residual = 0.0624058, Final residual = 0.000426758, No Iterations 5
DILUPBiCGStab:  Solving for Uy, Initial residual = 0.140393, Final residual = 0.000410302, No Iterations 5
DILUPBiCGStab:  Solving for Uz, Initial residual = 0.672465, Final residual = 0.00554186, No Iterations 5
linear solve U 14770058
PETSc-cg:  Solving for p, Initial residual = 0.656984, Final residual = 9.91779e-05, No Iterations 3948
linear solve p 16456164
time step continuity errors : sum local = 1.96344e-10, global = -6.47998e-23, cumulative = 8.74106e-23
PETSc-cg:  Solving for p, Initial residual = 0.603721, Final residual = 9.90612e-05, No Iterations 3945
linear solve p 16441117
time step continuity errors : sum local = 1.91762e-10, global = -9.3578e-23, cumulative = -6.16734e-24
ExecutionTime = 192.31 s  ClockTime = 193 s

Time = 8e-05

Courant Number mean: 0.00199174 max: 0.0913812
DILUPBiCGStab:  Solving for Ux, Initial residual = 0.0415196, Final residual = 0.000207206, No Iterations 5
DILUPBiCGStab:  Solving for Uy, Initial residual = 0.0887795, Final residual = 0.000241868, No Iterations 5
DILUPBiCGStab:  Solving for Uz, Initial residual = 0.163576, Final residual = 0.000898914, No Iterations 5
linear solve U 11091912
PETSc-cg:  Solving for p, Initial residual = 0.432921, Final residual = 9.94995e-05, No Iterations 1859
linear solve p 7980793
time step continuity errors : sum local = 1.70699e-10, global = -3.74248e-24, cumulative = -9.90982e-24
PETSc-cg:  Solving for p, Initial residual = 0.370596, Final residual = 9.94783e-05, No Iterations 1844
linear solve p 7910153
time step continuity errors : sum local = 1.66051e-10, global = -7.88789e-23, cumulative = -8.87887e-23
ExecutionTime = 227.34 s  ClockTime = 229 s

Time = 0.0001

Courant Number mean: 0.00230553 max: 0.0927868
DILUPBiCGStab:  Solving for Ux, Initial residual = 0.0318294, Final residual = 0.000119203, No Iterations 5
DILUPBiCGStab:  Solving for Uy, Initial residual = 0.0636819, Final residual = 0.000138231, No Iterations 5
DILUPBiCGStab:  Solving for Uz, Initial residual = 0.0946282, Final residual = 0.000481855, No Iterations 5
linear solve U 15598464
PETSc-cg:  Solving for p, Initial residual = 0.336118, Final residual = 9.82791e-05, No Iterations 1810
linear solve p 7783597
time step continuity errors : sum local = 1.35442e-10, global = -1.17966e-23, cumulative = -1.00585e-22
PETSc-cg:  Solving for p, Initial residual = 0.288965, Final residual = 9.97102e-05, No Iterations 1803
linear solve p 7743466
time step continuity errors : sum local = 1.34434e-10, global = -7.8608e-25, cumulative = -1.01371e-22
ExecutionTime = 266.5 s  ClockTime = 268 s

Time = 0.00012

Courant Number mean: 0.00257409 max: 0.0936642
DILUPBiCGStab:  Solving for Ux, Initial residual = 0.0259453, Final residual = 8.56224e-05, No Iterations 5
DILUPBiCGStab:  Solving for Uy, Initial residual = 0.0500742, Final residual = 6.38909e-05, No Iterations 5
DILUPBiCGStab:  Solving for Uz, Initial residual = 0.0838873, Final residual = 0.000411744, No Iterations 5
linear solve U 11051728
PETSc-cg:  Solving for p, Initial residual = 0.214955, Final residual = 9.96833e-05, No Iterations 1845
linear solve p 7936421
time step continuity errors : sum local = 1.38574e-10, global = -2.60908e-23, cumulative = -1.27462e-22
PETSc-cg:  Solving for p, Initial residual = 0.18055, Final residual = 9.98623e-05, No Iterations 1753
linear solve p 7545071
time step continuity errors : sum local = 1.3195e-10, global = -2.61694e-23, cumulative = -1.53632e-22
ExecutionTime = 301.06 s  ClockTime = 302 s

Time = 0.00014

Courant Number mean: 0.00281158 max: 0.0942761
DILUPBiCGStab:  Solving for Ux, Initial residual = 0.0220193, Final residual = 6.0459e-05, No Iterations 5
DILUPBiCGStab:  Solving for Uy, Initial residual = 0.0411506, Final residual = 5.04357e-05, No Iterations 5
DILUPBiCGStab:  Solving for Uz, Initial residual = 0.0700074, Final residual = 0.000256516, No Iterations 5
linear solve U 11044513
PETSc-cg:  Solving for p, Initial residual = 0.156655, Final residual = 9.78584e-05, No Iterations 1812
linear solve p 7795471
time step continuity errors : sum local = 1.27733e-10, global = -4.36689e-23, cumulative = -1.97301e-22
PETSc-cg:  Solving for p, Initial residual = 0.132215, Final residual = 9.83758e-05, No Iterations 1794
linear solve p 7724461
time step continuity errors : sum local = 1.21903e-10, global = 3.10398e-23, cumulative = -1.66261e-22
ExecutionTime = 335.85 s  ClockTime = 337 s

Time = 0.00016

Courant Number mean: 0.00302579 max: 0.0947353
DILUPBiCGStab:  Solving for Ux, Initial residual = 0.0191932, Final residual = 4.45937e-05, No Iterations 5
DILUPBiCGStab:  Solving for Uy, Initial residual = 0.0349258, Final residual = 2.62649e-05, No Iterations 5
DILUPBiCGStab:  Solving for Uz, Initial residual = 0.0641116, Final residual = 0.000197375, No Iterations 5
linear solve U 11054100
PETSc-cg:  Solving for p, Initial residual = 0.104573, Final residual = 9.87316e-05, No Iterations 3828
linear solve p 15978423
time step continuity errors : sum local = 1.17443e-10, global = -4.39522e-23, cumulative = -2.10213e-22
PETSc-cg:  Solving for p, Initial residual = 0.0878631, Final residual = 9.93619e-05, No Iterations 3825
linear solve p 15962981
time step continuity errors : sum local = 1.18127e-10, global = -2.74922e-23, cumulative = -2.37705e-22
ExecutionTime = 386.88 s  ClockTime = 388 s

Time = 0.00018

Courant Number mean: 0.00322187 max: 0.0950964
DILUPBiCGStab:  Solving for Ux, Initial residual = 0.017021, Final residual = 3.3914e-05, No Iterations 5
DILUPBiCGStab:  Solving for Uy, Initial residual = 0.0303597, Final residual = 2.40429e-05, No Iterations 5
DILUPBiCGStab:  Solving for Uz, Initial residual = 0.0530732, Final residual = 0.000123401, No Iterations 5
linear solve U 11064714
PETSc-cg:  Solving for p, Initial residual = 0.0794654, Final residual = 9.92886e-05, No Iterations 1611
linear solve p 6978025
time step continuity errors : sum local = 1.19757e-10, global = -1.41088e-22, cumulative = -3.78793e-22
PETSc-cg:  Solving for p, Initial residual = 0.0671103, Final residual = 9.98285e-05, No Iterations 1602
linear solve p 6943348
time step continuity errors : sum local = 1.18218e-10, global = -3.44648e-23, cumulative = -4.13258e-22
ExecutionTime = 420.08 s  ClockTime = 422 s

Time = 0.0002

Courant Number mean: 0.00340325 max: 0.0953895
DILUPBiCGStab:  Solving for Ux, Initial residual = 0.0153219, Final residual = 2.67719e-05, No Iterations 5
DILUPBiCGStab:  Solving for Uy, Initial residual = 0.0268268, Final residual = 1.62807e-05, No Iterations 5
DILUPBiCGStab:  Solving for Uz, Initial residual = 0.0487182, Final residual = 9.47694e-05, No Iterations 5
linear solve U 11055034
PETSc-cg:  Solving for p, Initial residual = 0.0542787, Final residual = 9.96301e-05, No Iterations 1698
linear solve p 7333933
time step continuity errors : sum local = 1.2077e-10, global = -9.12303e-23, cumulative = -5.04488e-22
PETSc-cg:  Solving for p, Initial residual = 0.0466587, Final residual = 9.95825e-05, No Iterations 1618
linear solve p 7000220
time step continuity errors : sum local = 1.16215e-10, global = 8.02779e-24, cumulative = -4.9646e-22
ExecutionTime = 453.72 s  ClockTime = 455 s

Time = 0.00022

Courant Number mean: 0.00357245 max: 0.095634
DILUPBiCGStab:  Solving for Ux, Initial residual = 0.013932, Final residual = 2.16497e-05, No Iterations 5
DILUPBiCGStab:  Solving for Uy, Initial residual = 0.0240466, Final residual = 1.5025e-05, No Iterations 5
DILUPBiCGStab:  Solving for Uz, Initial residual = 0.0446773, Final residual = 8.89702e-05, No Iterations 5
linear solve U 11082482
PETSc-cg:  Solving for p, Initial residual = 0.0436867, Final residual = 9.94352e-05, No Iterations 1783
linear solve p 7668333
time step continuity errors : sum local = 1.21468e-10, global = -6.47078e-23, cumulative = -5.61168e-22
PETSc-cg:  Solving for p, Initial residual = 0.0376278, Final residual = 9.83481e-05, No Iterations 1718
linear solve p 7414407
time step continuity errors : sum local = 1.15242e-10, global = -6.37147e-23, cumulative = -6.24883e-22
ExecutionTime = 488.08 s  ClockTime = 490 s

Time = 0.00024

Courant Number mean: 0.00373134 max: 0.0958416
DILUPBiCGStab:  Solving for Ux, Initial residual = 0.0127953, Final residual = 1.80313e-05, No Iterations 5
DILUPBiCGStab:  Solving for Uy, Initial residual = 0.0217537, Final residual = 1.20899e-05, No Iterations 5
DILUPBiCGStab:  Solving for Uz, Initial residual = 0.0419815, Final residual = 8.59996e-05, No Iterations 5
linear solve U 11777366
PETSc-cg:  Solving for p, Initial residual = 0.0321682, Final residual = 9.85722e-05, No Iterations 3679
linear solve p 15369378
time step continuity errors : sum local = 1.1231e-10, global = -6.40514e-23, cumulative = -6.88934e-22
PETSc-cg:  Solving for p, Initial residual = 0.028708, Final residual = 9.95325e-05, No Iterations 3674
linear solve p 15345324
time step continuity errors : sum local = 1.13459e-10, global = -8.7263e-23, cumulative = -7.76197e-22
ExecutionTime = 538.79 s  ClockTime = 541 s

Time = 0.00026

Courant Number mean: 0.00388142 max: 0.096021
DILUPBiCGStab:  Solving for Ux, Initial residual = 0.0118237, Final residual = 1.5304e-05, No Iterations 5
DILUPBiCGStab:  Solving for Uy, Initial residual = 0.0198783, Final residual = 1.10988e-05, No Iterations 5
DILUPBiCGStab:  Solving for Uz, Initial residual = 0.0366082, Final residual = 5.5155e-05, No Iterations 5
linear solve U 11099488
PETSc-cg:  Solving for p, Initial residual = 0.0272595, Final residual = 9.8984e-05, No Iterations 1524
linear solve p 6617649
time step continuity errors : sum local = 1.15454e-10, global = -9.52506e-23, cumulative = -8.71448e-22
PETSc-cg:  Solving for p, Initial residual = 0.0243893, Final residual = 9.95138e-05, No Iterations 1515
linear solve p 6577600
time step continuity errors : sum local = 1.14248e-10, global = -8.47643e-23, cumulative = -9.56212e-22
ExecutionTime = 571.29 s  ClockTime = 573 s

Time = 0.00028

Courant Number mean: 0.00402374 max: 0.0961779
DILUPBiCGStab:  Solving for Ux, Initial residual = 0.0109988, Final residual = 1.32807e-05, No Iterations 5
DILUPBiCGStab:  Solving for Uy, Initial residual = 0.0182855, Final residual = 9.78662e-06, No Iterations 5
DILUPBiCGStab:  Solving for Uz, Initial residual = 0.0347348, Final residual = 4.71062e-05, No Iterations 5
linear solve U 11078036
PETSc-cg:  Solving for p, Initial residual = 0.021813, Final residual = 9.96281e-05, No Iterations 1575
linear solve p 6836276
time step continuity errors : sum local = 1.17396e-10, global = -8.0981e-24, cumulative = -9.6431e-22
PETSc-cg:  Solving for p, Initial residual = 0.0200817, Final residual = 9.93831e-05, No Iterations 1526
linear solve p 6621941
time step continuity errors : sum local = 1.13802e-10, global = -2.75208e-23, cumulative = -9.91831e-22
ExecutionTime = 604.07 s  ClockTime = 606 s

Time = 0.0003

Courant Number mean: 0.00415921 max: 0.0963167
DILUPBiCGStab:  Solving for Ux, Initial residual = 0.0102785, Final residual = 1.1731e-05, No Iterations 5
DILUPBiCGStab:  Solving for Uy, Initial residual = 0.01694, Final residual = 9.03197e-06, No Iterations 5
DILUPBiCGStab:  Solving for Uz, Initial residual = 0.0325018, Final residual = 4.97242e-05, No Iterations 5
linear solve U 11082061
PETSc-cg:  Solving for p, Initial residual = 0.019134, Final residual = 9.96601e-05, No Iterations 1704
linear solve p 7361868
time step continuity errors : sum local = 1.18715e-10, global = -5.78566e-23, cumulative = -1.04969e-21
PETSc-cg:  Solving for p, Initial residual = 0.0177087, Final residual = 9.91376e-05, No Iterations 1673
linear solve p 7222713
time step continuity errors : sum local = 1.14249e-10, global = -2.60045e-25, cumulative = -1.04995e-21
ExecutionTime = 637.79 s  ClockTime = 640 s

Time = 0.00032

Courant Number mean: 0.00428866 max: 0.0964405
DILUPBiCGStab:  Solving for Ux, Initial residual = 0.00965703, Final residual = 1.05364e-05, No Iterations 5
DILUPBiCGStab:  Solving for Uy, Initial residual = 0.0157585, Final residual = 8.2286e-06, No Iterations 5
DILUPBiCGStab:  Solving for Uz, Initial residual = 0.0311226, Final residual = 5.13732e-05, No Iterations 5
linear solve U 11049076
PETSc-cg:  Solving for p, Initial residual = 0.0165347, Final residual = 9.884e-05, No Iterations 1714
linear solve p 7397495
time step continuity errors : sum local = 1.20136e-10, global = -3.01182e-23, cumulative = -1.08007e-21
PETSc-cg:  Solving for p, Initial residual = 0.0155951, Final residual = 9.97694e-05, No Iterations 1626
linear solve p 7037312
time step continuity errors : sum local = 1.15217e-10, global = -1.36278e-23, cumulative = -1.09369e-21
ExecutionTime = 671.31 s  ClockTime = 674 s

Time = 0.00034

Courant Number mean: 0.00441268 max: 0.096552
DILUPBiCGStab:  Solving for Ux, Initial residual = 0.00909758, Final residual = 9.56201e-06, No Iterations 5
DILUPBiCGStab:  Solving for Uy, Initial residual = 0.0147519, Final residual = 7.63788e-06, No Iterations 5
DILUPBiCGStab:  Solving for Uz, Initial residual = 0.0294438, Final residual = 5.43677e-05, No Iterations 5
linear solve U 11091794
PETSc-cg:  Solving for p, Initial residual = 0.0151772, Final residual = 9.88121e-05, No Iterations 1724
linear solve p 7429203
time step continuity errors : sum local = 1.22929e-10, global = -1.08451e-22, cumulative = -1.20214e-21
PETSc-cg:  Solving for p, Initial residual = 0.0144071, Final residual = 9.93557e-05, No Iterations 1663
linear solve p 7182591
time step continuity errors : sum local = 1.15937e-10, global = -8.01871e-23, cumulative = -1.28233e-21
ExecutionTime = 705.03 s  ClockTime = 707 s

Time = 0.00036

Courant Number mean: 0.00453175 max: 0.0966529
DILUPBiCGStab:  Solving for Ux, Initial residual = 0.00861362, Final residual = 8.77061e-06, No Iterations 5
DILUPBiCGStab:  Solving for Uy, Initial residual = 0.0138337, Final residual = 7.06706e-06, No Iterations 5
DILUPBiCGStab:  Solving for Uz, Initial residual = 0.0284285, Final residual = 5.69757e-05, No Iterations 5
linear solve U 14706812
PETSc-cg:  Solving for p, Initial residual = 0.0137129, Final residual = 9.85345e-05, No Iterations 3658
linear solve p 15284198
time step continuity errors : sum local = 1.11507e-10, global = -1.26313e-22, cumulative = -1.40864e-21
PETSc-cg:  Solving for p, Initial residual = 0.0131233, Final residual = 9.99684e-05, No Iterations 3653
linear solve p 15267410
time step continuity errors : sum local = 1.13165e-10, global = -2.1616e-22, cumulative = -1.6248e-21
ExecutionTime = 758.32 s  ClockTime = 761 s

Time = 0.00038

Courant Number mean: 0.00464642 max: 0.096745
DILUPBiCGStab:  Solving for Ux, Initial residual = 0.00816716, Final residual = 8.08295e-06, No Iterations 5
DILUPBiCGStab:  Solving for Uy, Initial residual = 0.0130446, Final residual = 6.55754e-06, No Iterations 5
DILUPBiCGStab:  Solving for Uz, Initial residual = 0.0252375, Final residual = 4.04879e-05, No Iterations 5
linear solve U 14712333
PETSc-cg:  Solving for p, Initial residual = 0.0130274, Final residual = 9.91464e-05, No Iterations 1467
linear solve p 6395913
time step continuity errors : sum local = 1.17576e-10, global = -1.29718e-22, cumulative = -1.75452e-21
PETSc-cg:  Solving for p, Initial residual = 0.0125067, Final residual = 9.90119e-05, No Iterations 1453
linear solve p 6329409
time step continuity errors : sum local = 1.1412e-10, global = -3.24073e-23, cumulative = -1.78693e-21
ExecutionTime = 793.8 s  ClockTime = 796 s

Time = 0.0004

Courant Number mean: 0.00475695 max: 0.0968293
DILUPBiCGStab:  Solving for Ux, Initial residual = 0.00777127, Final residual = 7.49626e-06, No Iterations 5
DILUPBiCGStab:  Solving for Uy, Initial residual = 0.0123262, Final residual = 6.26075e-06, No Iterations 5
DILUPBiCGStab:  Solving for Uz, Initial residual = 0.0244771, Final residual = 3.6312e-05, No Iterations 5
linear solve U 14848993
PETSc-cg:  Solving for p, Initial residual = 0.0119012, Final residual = 9.96756e-05, No Iterations 1621
linear solve p 7023279
time step continuity errors : sum local = 1.19321e-10, global = -1.54921e-22, cumulative = -1.94185e-21
PETSc-cg:  Solving for p, Initial residual = 0.0114722, Final residual = 9.97921e-05, No Iterations 1489
linear solve p 6471872
time step continuity errors : sum local = 1.14452e-10, global = 6.24585e-23, cumulative = -1.87939e-21
ExecutionTime = 830.19 s  ClockTime = 833 s

End

Finalizing PETSc
Finalising parallel run
================================================================================
hash: c42989d57b781567ec40410a94371e67
/*---------------------------------------------------------------------------*\
| =========                 |                                                 |
| \\      /  F ield         | OpenFOAM: The Open Source CFD Toolbox           |
|  \\    /   O peration     | Version:  2112                                  |
|   \\  /    A nd           | Website:  www.openfoam.com                      |
|    \\/     M anipulation  |                                                 |
\*---------------------------------------------------------------------------*/
Build  : d44c8318f0-20220111 OPENFOAM=2112 version=v2112
Arch   : "LSB;label=32;scalar=64"
Exec   : icoFoam -parallel
Date   : Oct 08 2022
Time   : 09:37:10
Host   : hkn0722.localdomain
PID    : 2066209
I/O    : uncollated
Case   : /hkfs/work/workspace/scratch/eq4036-lidDrivenCavity/multi_node/mesh/500/matrix_solver/CG_NoPrecond_PETSC_CUDA/mpiRank_of/8/base
nProcs : 8
Hosts  :
(
    (hkn0722.localdomain 4)
    (hkn0723.localdomain 4)
)
Pstream initialized with:
    floatTransfer      : 0
    nProcsSimpleSum    : 0
    commsType          : nonBlocking
    polling iterations : 0
trapFpe: Floating point exception trapping enabled (FOAM_SIGFPE).
fileModificationChecking : Monitoring run-time modified files using timeStampMaster (fileModificationSkew 5, maxFileModificationPolls 20)
allowSystemOperations : Allowing user-supplied system call operations

// * * * * * * * * * * * * * * * * * * * * * * * * * * * * * * * * * * * * * //
Create time

Create mesh for time = 0


PISO: Operating solver in PISO mode

Reading transportProperties

Reading field p

Reading field U

Reading/calculating face flux field phi


Starting time loop

Time = 2e-05

Courant Number mean: 0 max: 0
DILUPBiCGStab:  Solving for Ux, Initial residual = 1, Final residual = 0.00237799, No Iterations 5
DILUPBiCGStab:  Solving for Uy:  solution singularity
DILUPBiCGStab:  Solving for Uz:  solution singularity
linear solve U 10951826
Initializing PETSc
PETSc-cg:  Solving for p, Initial residual = 1, Final residual = 9.96648e-05, No Iterations 4108
linear solve p 20205376
time step continuity errors : sum local = 1.75388e-10, global = -3.27446e-23, cumulative = -3.27446e-23
PETSc-cg:  Solving for p, Initial residual = 0.738037, Final residual = 9.95593e-05, No Iterations 4059
linear solve p 15680233
time step continuity errors : sum local = 2.31017e-10, global = 5.85553e-25, cumulative = -3.2159e-23
ExecutionTime = 119.04 s  ClockTime = 120 s

Time = 4e-05

Courant Number mean: 0.00105532 max: 0.0776354
DILUPBiCGStab:  Solving for Ux, Initial residual = 0.150277, Final residual = 0.0014316, No Iterations 5
DILUPBiCGStab:  Solving for Uy, Initial residual = 0.356132, Final residual = 0.00160039, No Iterations 5
DILUPBiCGStab:  Solving for Uz, Initial residual = 0.99741, Final residual = 0.00611305, No Iterations 5
linear solve U 29757775
PETSc-cg:  Solving for p, Initial residual = 0.707521, Final residual = 9.99428e-05, No Iterations 3986
linear solve p 15415138
time step continuity errors : sum local = 2.70318e-10, global = -3.00372e-23, cumulative = -6.21962e-23
PETSc-cg:  Solving for p, Initial residual = 0.640238, Final residual = 9.91436e-05, No Iterations 3981
linear solve p 15375141
time step continuity errors : sum local = 2.72304e-10, global = -1.68204e-23, cumulative = -7.90167e-23
ExecutionTime = 195.53 s  ClockTime = 197 s

Time = 6e-05

Courant Number mean: 0.00160646 max: 0.0884739
DILUPBiCGStab:  Solving for Ux, Initial residual = 0.0623906, Final residual = 0.000382313, No Iterations 5
DILUPBiCGStab:  Solving for Uy, Initial residual = 0.14036, Final residual = 0.000382996, No Iterations 5
DILUPBiCGStab:  Solving for Uz, Initial residual = 0.663531, Final residual = 0.00476479, No Iterations 5
linear solve U 29772402
PETSc-cg:  Solving for p, Initial residual = 0.656226, Final residual = 9.91349e-05, No Iterations 3948
linear solve p 15252210
time step continuity errors : sum local = 1.9585e-10, global = -5.05922e-23, cumulative = -1.29609e-22
PETSc-cg:  Solving for p, Initial residual = 0.603015, Final residual = 9.83945e-05, No Iterations 3944
linear solve p 15210304
time step continuity errors : sum local = 1.90082e-10, global = -5.04805e-23, cumulative = -1.80089e-22
ExecutionTime = 271.73 s  ClockTime = 273 s

Time = 8e-05

Courant Number mean: 0.00199223 max: 0.0913805
DILUPBiCGStab:  Solving for Ux, Initial residual = 0.0415081, Final residual = 0.000182085, No Iterations 5
DILUPBiCGStab:  Solving for Uy, Initial residual = 0.0887614, Final residual = 0.000230296, No Iterations 5
DILUPBiCGStab:  Solving for Uz, Initial residual = 0.161566, Final residual = 0.000825792, No Iterations 5
linear solve U 29790580
PETSc-cg:  Solving for p, Initial residual = 0.431914, Final residual = 9.95259e-05, No Iterations 1859
linear solve p 7612914
time step continuity errors : sum local = 1.70491e-10, global = -4.6288e-23, cumulative = -2.26377e-22
PETSc-cg:  Solving for p, Initial residual = 0.369524, Final residual = 9.94105e-05, No Iterations 1843
linear solve p 7579888
time step continuity errors : sum local = 1.65646e-10, global = -6.21735e-23, cumulative = -2.88551e-22
ExecutionTime = 332.66 s  ClockTime = 334 s

Time = 0.0001

Courant Number mean: 0.00230605 max: 0.0927866
DILUPBiCGStab:  Solving for Ux, Initial residual = 0.0318197, Final residual = 9.76453e-05, No Iterations 5
DILUPBiCGStab:  Solving for Uy, Initial residual = 0.0636691, Final residual = 0.000132543, No Iterations 5
DILUPBiCGStab:  Solving for Uz, Initial residual = 0.0935532, Final residual = 0.000411365, No Iterations 5
linear solve U 29762220
PETSc-cg:  Solving for p, Initial residual = 0.335169, Final residual = 9.95842e-05, No Iterations 1809
linear solve p 7428570
time step continuity errors : sum local = 1.37009e-10, global = -2.12544e-23, cumulative = -3.09805e-22
PETSc-cg:  Solving for p, Initial residual = 0.287992, Final residual = 9.72909e-05, No Iterations 1803
linear solve p 7408166
time step continuity errors : sum local = 1.30996e-10, global = -1.26376e-22, cumulative = -4.36181e-22
ExecutionTime = 393.2 s  ClockTime = 395 s

Time = 0.00012

Courant Number mean: 0.00257463 max: 0.0936642
DILUPBiCGStab:  Solving for Ux, Initial residual = 0.0259371, Final residual = 7.24962e-05, No Iterations 5
DILUPBiCGStab:  Solving for Uy, Initial residual = 0.050064, Final residual = 6.14911e-05, No Iterations 5
DILUPBiCGStab:  Solving for Uz, Initial residual = 0.082935, Final residual = 0.000357642, No Iterations 5
linear solve U 29756669
PETSc-cg:  Solving for p, Initial residual = 0.214164, Final residual = 9.99444e-05, No Iterations 1843
linear solve p 7561476
time step continuity errors : sum local = 1.38819e-10, global = -1.04594e-22, cumulative = -5.40775e-22
PETSc-cg:  Solving for p, Initial residual = 0.179677, Final residual = 9.89059e-05, No Iterations 1753
linear solve p 7243646
time step continuity errors : sum local = 1.3059e-10, global = -2.81474e-23, cumulative = -5.68923e-22
ExecutionTime = 453.73 s  ClockTime = 456 s

Time = 0.00014

Courant Number mean: 0.00281214 max: 0.0942762
DILUPBiCGStab:  Solving for Ux, Initial residual = 0.0220122, Final residual = 5.12943e-05, No Iterations 5
DILUPBiCGStab:  Solving for Uy, Initial residual = 0.0411423, Final residual = 4.90809e-05, No Iterations 5
DILUPBiCGStab:  Solving for Uz, Initial residual = 0.0692351, Final residual = 0.000218937, No Iterations 5
linear solve U 29805208
PETSc-cg:  Solving for p, Initial residual = 0.156124, Final residual = 9.8684e-05, No Iterations 1811
linear solve p 7438011
time step continuity errors : sum local = 1.28699e-10, global = -3.07215e-23, cumulative = -5.99644e-22
PETSc-cg:  Solving for p, Initial residual = 0.131677, Final residual = 9.68255e-05, No Iterations 1794
linear solve p 7395915
time step continuity errors : sum local = 1.19942e-10, global = -4.65505e-23, cumulative = -6.46195e-22
ExecutionTime = 514.3 s  ClockTime = 516 s

Time = 0.00016

Courant Number mean: 0.00302634 max: 0.0947356
DILUPBiCGStab:  Solving for Ux, Initial residual = 0.0191871, Final residual = 3.85136e-05, No Iterations 5
DILUPBiCGStab:  Solving for Uy, Initial residual = 0.0349187, Final residual = 2.38095e-05, No Iterations 5
DILUPBiCGStab:  Solving for Uz, Initial residual = 0.0634484, Final residual = 0.000173551, No Iterations 5
linear solve U 29781963
PETSc-cg:  Solving for p, Initial residual = 0.104142, Final residual = 9.97587e-05, No Iterations 3827
linear solve p 14812121
time step continuity errors : sum local = 1.18591e-10, global = -5.23783e-23, cumulative = -6.98573e-22
PETSc-cg:  Solving for p, Initial residual = 0.0873857, Final residual = 9.973e-05, No Iterations 3823
linear solve p 14784452
time step continuity errors : sum local = 1.18491e-10, global = -5.01196e-23, cumulative = -7.48692e-22
ExecutionTime = 589.65 s  ClockTime = 592 s

Time = 0.00018

Courant Number mean: 0.00322242 max: 0.0950966
DILUPBiCGStab:  Solving for Ux, Initial residual = 0.0170157, Final residual = 2.92665e-05, No Iterations 5
DILUPBiCGStab:  Solving for Uy, Initial residual = 0.030354, Final residual = 2.20765e-05, No Iterations 5
DILUPBiCGStab:  Solving for Uz, Initial residual = 0.0524982, Final residual = 0.000110477, No Iterations 5
linear solve U 29801360
PETSc-cg:  Solving for p, Initial residual = 0.0791373, Final residual = 9.96844e-05, No Iterations 1611
linear solve p 6706055
time step continuity errors : sum local = 1.20186e-10, global = -8.01952e-23, cumulative = -8.28888e-22
PETSc-cg:  Solving for p, Initial residual = 0.0667134, Final residual = 9.986e-05, No Iterations 1602
linear solve p 6697253
time step continuity errors : sum local = 1.18208e-10, global = -8.22548e-23, cumulative = -9.11142e-22
ExecutionTime = 648.79 s  ClockTime = 651 s

Time = 0.0002

Courant Number mean: 0.0034038 max: 0.0953897
DILUPBiCGStab:  Solving for Ux, Initial residual = 0.0153173, Final residual = 2.31608e-05, No Iterations 5
DILUPBiCGStab:  Solving for Uy, Initial residual = 0.0268219, Final residual = 1.35973e-05, No Iterations 5
DILUPBiCGStab:  Solving for Uz, Initial residual = 0.0482242, Final residual = 8.65685e-05, No Iterations 5
linear solve U 29751677
PETSc-cg:  Solving for p, Initial residual = 0.0539437, Final residual = 9.9967e-05, No Iterations 1696
linear solve p 7016637
time step continuity errors : sum local = 1.21147e-10, global = -4.26541e-23, cumulative = -9.53797e-22
PETSc-cg:  Solving for p, Initial residual = 0.0462831, Final residual = 9.96397e-05, No Iterations 1617
linear solve p 6746223
time step continuity errors : sum local = 1.1624e-10, global = -6.41349e-24, cumulative = -9.6021e-22
ExecutionTime = 708.27 s  ClockTime = 711 s

Time = 0.00022

Courant Number mean: 0.00357299 max: 0.0956342
DILUPBiCGStab:  Solving for Ux, Initial residual = 0.013928, Final residual = 1.86616e-05, No Iterations 5
DILUPBiCGStab:  Solving for Uy, Initial residual = 0.0240426, Final residual = 1.25879e-05, No Iterations 5
DILUPBiCGStab:  Solving for Uz, Initial residual = 0.044243, Final residual = 8.12552e-05, No Iterations 5
linear solve U 29786851
PETSc-cg:  Solving for p, Initial residual = 0.0433339, Final residual = 9.84907e-05, No Iterations 1783
linear solve p 7334137
time step continuity errors : sum local = 1.20394e-10, global = 4.45752e-23, cumulative = -9.15635e-22
PETSc-cg:  Solving for p, Initial residual = 0.0372293, Final residual = 9.96345e-05, No Iterations 1717
linear solve p 7105608
time step continuity errors : sum local = 1.16682e-10, global = -6.36247e-23, cumulative = -9.79259e-22
ExecutionTime = 768.45 s  ClockTime = 771 s

Time = 0.00024

Courant Number mean: 0.00373188 max: 0.0958419
DILUPBiCGStab:  Solving for Ux, Initial residual = 0.0127917, Final residual = 1.54718e-05, No Iterations 5
DILUPBiCGStab:  Solving for Uy, Initial residual = 0.0217501, Final residual = 9.53297e-06, No Iterations 5
DILUPBiCGStab:  Solving for Uz, Initial residual = 0.041605, Final residual = 7.90758e-05, No Iterations 5
linear solve U 29774676
PETSc-cg:  Solving for p, Initial residual = 0.0318394, Final residual = 9.99875e-05, No Iterations 3678
linear solve p 14256216
time step continuity errors : sum local = 1.13878e-10, global = -4.89262e-23, cumulative = -1.02819e-21
PETSc-cg:  Solving for p, Initial residual = 0.0283504, Final residual = 9.82813e-05, No Iterations 3674
linear solve p 14252035
time step continuity errors : sum local = 1.11991e-10, global = -1.07363e-22, cumulative = -1.13555e-21
ExecutionTime = 842.71 s  ClockTime = 846 s

Time = 0.00026

Courant Number mean: 0.00388195 max: 0.0960212
DILUPBiCGStab:  Solving for Ux, Initial residual = 0.0118206, Final residual = 1.30344e-05, No Iterations 5
DILUPBiCGStab:  Solving for Uy, Initial residual = 0.0198752, Final residual = 8.7024e-06, No Iterations 5
DILUPBiCGStab:  Solving for Uz, Initial residual = 0.0362739, Final residual = 5.15257e-05, No Iterations 5
linear solve U 29748963
PETSc-cg:  Solving for p, Initial residual = 0.0269147, Final residual = 9.95861e-05, No Iterations 1523
linear solve p 6406867
time step continuity errors : sum local = 1.16125e-10, global = 1.17258e-23, cumulative = -1.12382e-21
PETSc-cg:  Solving for p, Initial residual = 0.0240075, Final residual = 9.92006e-05, No Iterations 1514
linear solve p 6373273
time step continuity errors : sum local = 1.13857e-10, global = -4.21169e-23, cumulative = -1.16594e-21
ExecutionTime = 901.23 s  ClockTime = 904 s

Time = 0.00028

Courant Number mean: 0.00402426 max: 0.0961781
DILUPBiCGStab:  Solving for Ux, Initial residual = 0.010996, Final residual = 1.12066e-05, No Iterations 5
DILUPBiCGStab:  Solving for Uy, Initial residual = 0.0182827, Final residual = 7.41296e-06, No Iterations 5
DILUPBiCGStab:  Solving for Uz, Initial residual = 0.0344322, Final residual = 4.43087e-05, No Iterations 5
linear solve U 29808914
PETSc-cg:  Solving for p, Initial residual = 0.0214795, Final residual = 9.93622e-05, No Iterations 1575
linear solve p 6575612
time step continuity errors : sum local = 1.17098e-10, global = -1.46884e-23, cumulative = -1.18063e-21
PETSc-cg:  Solving for p, Initial residual = 0.0197236, Final residual = 9.97753e-05, No Iterations 1524
linear solve p 6412316
time step continuity errors : sum local = 1.14215e-10, global = -1.74262e-23, cumulative = -1.19805e-21
ExecutionTime = 959.96 s  ClockTime = 963 s

Time = 0.0003

Courant Number mean: 0.00415972 max: 0.0963169
DILUPBiCGStab:  Solving for Ux, Initial residual = 0.0102759, Final residual = 9.78624e-06, No Iterations 5
DILUPBiCGStab:  Solving for Uy, Initial residual = 0.0169377, Final residual = 6.83724e-06, No Iterations 5
DILUPBiCGStab:  Solving for Uz, Initial residual = 0.0322325, Final residual = 4.67448e-05, No Iterations 5
linear solve U 29761226
PETSc-cg:  Solving for p, Initial residual = 0.0187673, Final residual = 9.95199e-05, No Iterations 1704
linear solve p 7044412
time step continuity errors : sum local = 1.18583e-10, global = -1.08308e-22, cumulative = -1.30636e-21
PETSc-cg:  Solving for p, Initial residual = 0.0173107, Final residual = 9.96768e-05, No Iterations 1672
linear solve p 6930278
time step continuity errors : sum local = 1.14836e-10, global = -1.21595e-22, cumulative = -1.42796e-21
ExecutionTime = 1019.68 s  ClockTime = 1023 s

Time = 0.00032

Courant Number mean: 0.00428917 max: 0.0964407
DILUPBiCGStab:  Solving for Ux, Initial residual = 0.00965472, Final residual = 8.69292e-06, No Iterations 5
DILUPBiCGStab:  Solving for Uy, Initial residual = 0.0157563, Final residual = 6.11413e-06, No Iterations 5
DILUPBiCGStab:  Solving for Uz, Initial residual = 0.0308832, Final residual = 4.83606e-05, No Iterations 5
linear solve U 29800397
PETSc-cg:  Solving for p, Initial residual = 0.0161804, Final residual = 9.90627e-05, No Iterations 1714
linear solve p 7082760
time step continuity errors : sum local = 1.20446e-10, global = -5.06302e-23, cumulative = -1.47859e-21
PETSc-cg:  Solving for p, Initial residual = 0.0152267, Final residual = 9.98433e-05, No Iterations 1627
linear solve p 6784809
time step continuity errors : sum local = 1.15285e-10, global = -1.07034e-22, cumulative = -1.58562e-21
ExecutionTime = 1079.3 s  ClockTime = 1083 s

Time = 0.00034

Courant Number mean: 0.00441319 max: 0.0965522
DILUPBiCGStab:  Solving for Ux, Initial residual = 0.0090954, Final residual = 7.8313e-06, No Iterations 5
DILUPBiCGStab:  Solving for Uy, Initial residual = 0.0147501, Final residual = 5.6673e-06, No Iterations 5
DILUPBiCGStab:  Solving for Uz, Initial residual = 0.0292274, Final residual = 5.09486e-05, No Iterations 5
linear solve U 29742381
PETSc-cg:  Solving for p, Initial residual = 0.0148223, Final residual = 9.97719e-05, No Iterations 1724
linear solve p 7124786
time step continuity errors : sum local = 1.2412e-10, global = -1.79395e-23, cumulative = -1.60356e-21
PETSc-cg:  Solving for p, Initial residual = 0.0140401, Final residual = 9.98819e-05, No Iterations 1661
linear solve p 6904138
time step continuity errors : sum local = 1.16535e-10, global = -5.62299e-23, cumulative = -1.65979e-21
ExecutionTime = 1139.05 s  ClockTime = 1143 s

Time = 0.00036

[...]
|    \\/     M anipulation  |                                                 |
\*---------------------------------------------------------------------------*/
Build  : d44c8318f0-20220111 OPENFOAM=2112 version=v2112
Arch   : "LSB;label=32;scalar=64"
Exec   : icoFoam -parallel
Date   : Oct 08 2022
Time   : 19:27:05
Host   : hkn1201.localdomain
PID    : 736182
I/O    : uncollated
Case   : /hkfs/work/workspace/scratch/eq4036-lidDrivenCavity/multi_node/mesh/400/matrix_solver/CG_NoPrecond_OpenFOAM_Default/mpiRank_of/760/base
nProcs : 760
Hosts  :
(
    (hkn1201.localdomain 76)
    (hkn1202.localdomain 76)
    (hkn1203.localdomain 76)
    (hkn1204.localdomain 76)
    (hkn1205.localdomain 76)
    (hkn1206.localdomain 76)
    (hkn1207.localdomain 76)
    (hkn1661.localdomain 76)
    (hkn1662.localdomain 76)
    (hkn1663.localdomain 76)
)
Pstream initialized with:
    floatTransfer      : 0
    nProcsSimpleSum    : 0
    commsType          : nonBlocking
    polling iterations : 0
trapFpe: Floating point exception trapping enabled (FOAM_SIGFPE).
fileModificationChecking : Monitoring run-time modified files using timeStampMaster (fileModificationSkew 5, maxFileModificationPolls 20)
allowSystemOperations : Allowing user-supplied system call operations

// * * * * * * * * * * * * * * * * * * * * * * * * * * * * * * * * * * * * * //
Create time

--> FOAM Warning : 
    From void* Foam::dlLibraryTable::openLibrary(const Foam::fileName&, bool)
    in file db/dynamicLibrary/dlLibraryTable/dlLibraryTable.C at line 188
    Could not load "libpetscFoam.so"
libcuda.so.1: cannot open shared object file: No such file or directory
Create mesh for time = 0


PISO: Operating solver in PISO mode

Reading transportProperties

Reading field p

Reading field U

Reading/calculating face flux field phi


Starting time loop

Time = 2.5e-05

Courant Number mean: 0 max: 0
DILUPBiCGStab:  Solving for Ux, Initial residual = 1, Final residual = 0.00368795, No Iterations 5
DILUPBiCGStab:  Solving for Uy:  solution singularity
DILUPBiCGStab:  Solving for Uz:  solution singularity
linear solve U 183858
nonePCG:  Solving for p, Initial residual = 1, Final residual = 9.83247e-05, No Iterations 3255
linear solve p 12823087
time step continuity errors : sum local = 2.47406e-10, global = 1.64965e-22, cumulative = 1.64965e-22
nonePCG:  Solving for p, Initial residual = 0.706077, Final residual = 9.93413e-05, No Iterations 3236
linear solve p 12535180
time step continuity errors : sum local = 3.37232e-10, global = -1.61318e-23, cumulative = 1.48833e-22
ExecutionTime = 26.84 s  ClockTime = 29 s

Time = 5e-05

Courant Number mean: 0.00116073 max: 0.0751051
DILUPBiCGStab:  Solving for Ux, Initial residual = 0.159988, Final residual = 0.00241796, No Iterations 5
DILUPBiCGStab:  Solving for Uy, Initial residual = 0.350106, Final residual = 0.00236364, No Iterations 5
DILUPBiCGStab:  Solving for Uz, Initial residual = 0.98866, Final residual = 0.0103228, No Iterations 5
linear solve U 303985
nonePCG:  Solving for p, Initial residual = 0.675874, Final residual = 9.95922e-05, No Iterations 3178
linear solve p 12031939
time step continuity errors : sum local = 3.77943e-10, global = -5.40715e-23, cumulative = 9.47619e-23
nonePCG:  Solving for p, Initial residual = 0.583803, Final residual = 9.94271e-05, No Iterations 3152
linear solve p 11711956
time step continuity errors : sum local = 3.86888e-10, global = 4.69426e-23, cumulative = 1.41705e-22
ExecutionTime = 50.99 s  ClockTime = 53 s

Time = 7.5e-05

Courant Number mean: 0.00177296 max: 0.0869995
DILUPBiCGStab:  Solving for Ux, Initial residual = 0.0664262, Final residual = 0.000693858, No Iterations 5
DILUPBiCGStab:  Solving for Uy, Initial residual = 0.138783, Final residual = 0.000542794, No Iterations 5
DILUPBiCGStab:  Solving for Uz, Initial residual = 0.43367, Final residual = 0.00489137, No Iterations 5
linear solve U 310301
nonePCG:  Solving for p, Initial residual = 0.562968, Final residual = 9.86106e-05, No Iterations 3136
linear solve p 11664468
time step continuity errors : sum local = 2.61155e-10, global = 5.12781e-23, cumulative = 1.92983e-22
nonePCG:  Solving for p, Initial residual = 0.505303, Final residual = 9.9068e-05, No Iterations 3133
linear solve p 11442207
time step continuity errors : sum local = 2.50964e-10, global = 1.31128e-23, cumulative = 2.06095e-22
ExecutionTime = 74.52 s  ClockTime = 77 s

Time = 0.0001

Courant Number mean: 0.0021999 max: 0.0902982
DILUPBiCGStab:  Solving for Ux, Initial residual = 0.043893, Final residual = 0.00032118, No Iterations 5
DILUPBiCGStab:  Solving for Uy, Initial residual = 0.0875409, Final residual = 0.000334939, No Iterations 5
DILUPBiCGStab:  Solving for Uz, Initial residual = 0.138248, Final residual = 0.00124255, No Iterations 5
linear solve U 300086
nonePCG:  Solving for p, Initial residual = 0.332709, Final residual = 9.92383e-05, No Iterations 1482
linear solve p 5371241
time step continuity errors : sum local = 2.33111e-10, global = 8.22463e-23, cumulative = 2.88342e-22
nonePCG:  Solving for p, Initial residual = 0.276176, Final residual = 9.89448e-05, No Iterations 1466
linear solve p 5228687
time step continuity errors : sum local = 2.24441e-10, global = 1.26573e-22, cumulative = 4.14915e-22
ExecutionTime = 85.61 s  ClockTime = 88 s

Time = 0.000125

Courant Number mean: 0.00254556 max: 0.0918904
DILUPBiCGStab:  Solving for Ux, Initial residual = 0.0334147, Final residual = 0.000188972, No Iterations 5
DILUPBiCGStab:  Solving for Uy, Initial residual = 0.0632536, Final residual = 0.000204371, No Iterations 5
DILUPBiCGStab:  Solving for Uz, Initial residual = 0.0948011, Final residual = 0.000619211, No Iterations 5
linear solve U 303620
nonePCG:  Solving for p, Initial residual = 0.221245, Final residual = 9.81626e-05, No Iterations 1436
linear solve p 5152840
time step continuity errors : sum local = 1.92604e-10, global = -4.72543e-23, cumulative = 3.6766e-22
nonePCG:  Solving for p, Initial residual = 0.187919, Final residual = 9.97847e-05, No Iterations 1433
linear solve p 5139959
time step continuity errors : sum local = 1.92347e-10, global = -3.73575e-23, cumulative = 3.30303e-22
ExecutionTime = 96.41 s  ClockTime = 99 s

Time = 0.00015

Courant Number mean: 0.00284086 max: 0.0928756
DILUPBiCGStab:  Solving for Ux, Initial residual = 0.0271756, Final residual = 0.00012369, No Iterations 5
DILUPBiCGStab:  Solving for Uy, Initial residual = 0.0496727, Final residual = 0.000100244, No Iterations 5
DILUPBiCGStab:  Solving for Uz, Initial residual = 0.0822519, Final residual = 0.000501352, No Iterations 5
linear solve U 294241
nonePCG:  Solving for p, Initial residual = 0.132539, Final residual = 9.89289e-05, No Iterations 1443
linear solve p 5199619
time step continuity errors : sum local = 1.98681e-10, global = -4.8929e-23, cumulative = 2.81374e-22
nonePCG:  Solving for p, Initial residual = 0.110084, Final residual = 9.97525e-05, No Iterations 1372
linear solve p 4901667
time step continuity errors : sum local = 1.91591e-10, global = -7.17179e-23, cumulative = 2.09656e-22
ExecutionTime = 106.99 s  ClockTime = 109 s

Time = 0.000175

Courant Number mean: 0.00310153 max: 0.0935634
DILUPBiCGStab:  Solving for Ux, Initial residual = 0.0229894, Final residual = 8.75267e-05, No Iterations 5
DILUPBiCGStab:  Solving for Uy, Initial residual = 0.0409049, Final residual = 8.91083e-05, No Iterations 5
DILUPBiCGStab:  Solving for Uz, Initial residual = 0.0695825, Final residual = 0.000351815, No Iterations 5
linear solve U 293733
nonePCG:  Solving for p, Initial residual = 0.0927062, Final residual = 9.99778e-05, No Iterations 1386
linear solve p 4884794
time step continuity errors : sum local = 1.86873e-10, global = 2.11453e-22, cumulative = 4.21108e-22
nonePCG:  Solving for p, Initial residual = 0.0782521, Final residual = 9.99071e-05, No Iterations 1377
linear solve p 4900834
time step continuity errors : sum local = 1.81039e-10, global = 7.58374e-23, cumulative = 4.96946e-22
ExecutionTime = 117.27 s  ClockTime = 120 s

Time = 0.0002

Courant Number mean: 0.0033363 max: 0.0940786
DILUPBiCGStab:  Solving for Ux, Initial residual = 0.0199821, Final residual = 6.57149e-05, No Iterations 5
DILUPBiCGStab:  Solving for Uy, Initial residual = 0.0347201, Final residual = 5.41076e-05, No Iterations 5
DILUPBiCGStab:  Solving for Uz, Initial residual = 0.0620954, Final residual = 0.000258154, No Iterations 5
linear solve U 290612
nonePCG:  Solving for p, Initial residual = 0.0587404, Final residual = 9.91371e-05, No Iterations 1444
linear solve p 5150576
time step continuity errors : sum local = 1.92804e-10, global = 5.97968e-23, cumulative = 5.56743e-22
nonePCG:  Solving for p, Initial residual = 0.0506649, Final residual = 9.90899e-05, No Iterations 1373
linear solve p 4842374
time step continuity errors : sum local = 1.82759e-10, global = -1.44194e-22, cumulative = 4.12549e-22
ExecutionTime = 127.75 s  ClockTime = 130 s

Time = 0.000225

Courant Number mean: 0.00355092 max: 0.0944832
DILUPBiCGStab:  Solving for Ux, Initial residual = 0.017683, Final residual = 5.11209e-05, No Iterations 5
DILUPBiCGStab:  Solving for Uy, Initial residual = 0.0301912, Final residual = 5.07777e-05, No Iterations 5
DILUPBiCGStab:  Solving for Uz, Initial residual = 0.0553365, Final residual = 0.000223625, No Iterations 5
linear solve U 309123
nonePCG:  Solving for p, Initial residual = 0.0457141, Final residual = 9.88731e-05, No Iterations 1384
linear solve p 4889964
time step continuity errors : sum local = 1.84733e-10, global = 1.49124e-22, cumulative = 5.61673e-22
nonePCG:  Solving for p, Initial residual = 0.0400411, Final residual = 9.85311e-05, No Iterations 1370
linear solve p 4865440
time step continuity errors : sum local = 1.75322e-10, global = 5.83364e-24, cumulative = 5.67506e-22
ExecutionTime = 138.01 s  ClockTime = 141 s

Time = 0.00025

Courant Number mean: 0.00374923 max: 0.0948118
DILUPBiCGStab:  Solving for Ux, Initial residual = 0.0158883, Final residual = 4.19623e-05, No Iterations 5
DILUPBiCGStab:  Solving for Uy, Initial residual = 0.0266579, Final residual = 3.90865e-05, No Iterations 5
DILUPBiCGStab:  Solving for Uz, Initial residual = 0.0503068, Final residual = 0.000187522, No Iterations 5
linear solve U 299743
nonePCG:  Solving for p, Initial residual = 0.0326925, Final residual = 9.90205e-05, No Iterations 2942
linear solve p 10279106
time step continuity errors : sum local = 1.73833e-10, global = -5.20251e-23, cumulative = 5.15481e-22
nonePCG:  Solving for p, Initial residual = 0.0294258, Final residual = 9.96159e-05, No Iterations 2938
linear solve p 10343090
time step continuity errors : sum local = 1.75028e-10, global = 5.80949e-23, cumulative = 5.73576e-22
ExecutionTime = 159.04 s  ClockTime = 162 s

Time = 0.000275

Courant Number mean: 0.00393396 max: 0.0950856
DILUPBiCGStab:  Solving for Ux, Initial residual = 0.0144229, Final residual = 3.53671e-05, No Iterations 5
DILUPBiCGStab:  Solving for Uy, Initial residual = 0.0238861, Final residual = 3.57778e-05, No Iterations 5
DILUPBiCGStab:  Solving for Uz, Initial residual = 0.0434904, Final residual = 0.000127734, No Iterations 5
linear solve U 288557
nonePCG:  Solving for p, Initial residual = 0.028034, Final residual = 9.93433e-05, No Iterations 1224
linear solve p 4287978
time step continuity errors : sum local = 1.77545e-10, global = -1.74458e-23, cumulative = 5.5613e-22
nonePCG:  Solving for p, Initial residual = 0.0256964, Final residual = 9.89598e-05, No Iterations 1219
linear solve p 4289847
time step continuity errors : sum local = 1.75117e-10, global = 1.35188e-22, cumulative = 6.91318e-22
ExecutionTime = 168.12 s  ClockTime = 171 s

Time = 0.0003

Courant Number mean: 0.00410721 max: 0.0953182
DILUPBiCGStab:  Solving for Ux, Initial residual = 0.0132155, Final residual = 3.08104e-05, No Iterations 5
DILUPBiCGStab:  Solving for Uy, Initial residual = 0.0216168, Final residual = 3.09664e-05, No Iterations 5
DILUPBiCGStab:  Solving for Uz, Initial residual = 0.0404666, Final residual = 0.000101699, No Iterations 5
linear solve U 289770
nonePCG:  Solving for p, Initial residual = 0.0221309, Final residual = 9.97412e-05, No Iterations 1225
linear solve p 4297609
time step continuity errors : sum local = 1.79417e-10, global = -1.13571e-22, cumulative = 5.77747e-22
nonePCG:  Solving for p, Initial residual = 0.0207935, Final residual = 9.81592e-05, No Iterations 1217
linear solve p 4267732
time step continuity errors : sum local = 1.72939e-10, global = -3.32827e-23, cumulative = 5.44464e-22
ExecutionTime = 177.17 s  ClockTime = 180 s

Time = 0.000325

Courant Number mean: 0.0042707 max: 0.095519
DILUPBiCGStab:  Solving for Ux, Initial residual = 0.0121952, Final residual = 2.73556e-05, No Iterations 5
DILUPBiCGStab:  Solving for Uy, Initial residual = 0.0197479, Final residual = 2.83046e-05, No Iterations 5
DILUPBiCGStab:  Solving for Uz, Initial residual = 0.0371528, Final residual = 9.32976e-05, No Iterations 5
linear solve U 295491
nonePCG:  Solving for p, Initial residual = 0.020068, Final residual = 9.99827e-05, No Iterations 1284
linear solve p 4556705
time step continuity errors : sum local = 1.79709e-10, global = 1.74599e-22, cumulative = 7.19063e-22
nonePCG:  Solving for p, Initial residual = 0.0189103, Final residual = 9.99762e-05, No Iterations 1251
linear solve p 4418401
time step continuity errors : sum local = 1.76819e-10, global = -3.72257e-23, cumulative = 6.81838e-22
ExecutionTime = 186.65 s  ClockTime = 190 s

Time = 0.00035

Courant Number mean: 0.00442557 max: 0.0956946
DILUPBiCGStab:  Solving for Ux, Initial residual = 0.0113284, Final residual = 2.47806e-05, No Iterations 5
DILUPBiCGStab:  Solving for Uy, Initial residual = 0.0181604, Final residual = 2.55679e-05, No Iterations 5
DILUPBiCGStab:  Solving for Uz, Initial residual = 0.0348872, Final residual = 8.21336e-05, No Iterations 5
linear solve U 287296
nonePCG:  Solving for p, Initial residual = 0.0173909, Final residual = 9.93003e-05, No Iterations 1339
linear solve p 4725374
time step continuity errors : sum local = 1.80185e-10, global = 3.13653e-23, cumulative = 7.13203e-22
nonePCG:  Solving for p, Initial residual = 0.0165988, Final residual = 9.95392e-05, No Iterations 1303
linear solve p 4542846
time step continuity errors : sum local = 1.75882e-10, global = 1.35925e-22, cumulative = 8.49128e-22
ExecutionTime = 196.41 s  ClockTime = 199 s

Time = 0.000375

Courant Number mean: 0.00457285 max: 0.09585
DILUPBiCGStab:  Solving for Ux, Initial residual = 0.0105737, Final residual = 2.26861e-05, No Iterations 5
DILUPBiCGStab:  Solving for Uy, Initial residual = 0.016818, Final residual = 2.35689e-05, No Iterations 5
DILUPBiCGStab:  Solving for Uz, Initial residual = 0.0325598, Final residual = 8.01366e-05, No Iterations 5
linear solve U 290324
nonePCG:  Solving for p, Initial residual = 0.0159754, Final residual = 9.91937e-05, No Iterations 1332
linear solve p 4657141
time step continuity errors : sum local = 1.80231e-10, global = 3.85715e-23, cumulative = 8.87699e-22
nonePCG:  Solving for p, Initial residual = 0.0152938, Final residual = 9.93175e-05, No Iterations 1294
linear solve p 4491952
time step continuity errors : sum local = 1.76075e-10, global = 2.0141e-23, cumulative = 9.0784e-22
ExecutionTime = 206.04 s  ClockTime = 209 s

Time = 0.0004

Courant Number mean: 0.00471352 max: 0.0959886
DILUPBiCGStab:  Solving for Ux, Initial residual = 0.00991968, Final residual = 2.09851e-05, No Iterations 5
DILUPBiCGStab:  Solving for Uy, Initial residual = 0.0156428, Final residual = 2.17229e-05, No Iterations 5
DILUPBiCGStab:  Solving for Uz, Initial residual = 0.0305811, Final residual = 7.4161e-05, No Iterations 5
linear solve U 295637
nonePCG:  Solving for p, Initial residual = 0.0144994, Final residual = 9.95169e-05, No Iterations 1313
linear solve p 4609658
time step continuity errors : sum local = 1.82738e-10, global = 1.5993e-23, cumulative = 9.23833e-22
nonePCG:  Solving for p, Initial residual = 0.0139513, Final residual = 9.91928e-05, No Iterations 1213
linear solve p 4225416
time step continuity errors : sum local = 1.7604e-10, global = -1.03546e-22, cumulative = 8.20287e-22
ExecutionTime = 215.38 s  ClockTime = 219 s

Time = 0.000425

Courant Number mean: 0.00484805 max: 0.0961133
DILUPBiCGStab:  Solving for Ux, Initial residual = 0.009336, Final residual = 1.95172e-05, No Iterations 5
DILUPBiCGStab:  Solving for Uy, Initial residual = 0.0146334, Final residual = 2.02301e-05, No Iterations 5
DILUPBiCGStab:  Solving for Uz, Initial residual = 0.0287921, Final residual = 7.49274e-05, No Iterations 5
linear solve U 288202
nonePCG:  Solving for p, Initial residual = 0.0135102, Final residual = 9.96733e-05, No Iterations 1331
linear solve p 4680008
time step continuity errors : sum local = 1.83617e-10, global = -6.97759e-23, cumulative = 7.50511e-22
nonePCG:  Solving for p, Initial residual = 0.0130131, Final residual = 9.95043e-05, No Iterations 1304
linear solve p 4558512
time step continuity errors : sum local = 1.77082e-10, global = -7.36908e-23, cumulative = 6.76821e-22
ExecutionTime = 225.1 s  ClockTime = 228 s

Time = 0.00045

Courant Number mean: 0.00497725 max: 0.0962262
DILUPBiCGStab:  Solving for Ux, Initial residual = 0.00882503, Final residual = 1.82671e-05, No Iterations 5
DILUPBiCGStab:  Solving for Uy, Initial residual = 0.0137279, Final residual = 1.8892e-05, No Iterations 5
DILUPBiCGStab:  Solving for Uz, Initial residual = 0.0273436, Final residual = 7.1543e-05, No Iterations 5
linear solve U 289278
nonePCG:  Solving for p, Initial residual = 0.0125505, Final residual = 9.93673e-05, No Iterations 1325
linear solve p 4600688
time step continuity errors : sum local = 1.85434e-10, global = 2.60065e-22, cumulative = 9.36886e-22
nonePCG:  Solving for p, Initial residual = 0.0121206, Final residual = 9.98812e-05, No Iterations 1199
linear solve p 4249447
time step continuity errors : sum local = 1.78249e-10, global = -3.52263e-24, cumulative = 9.33363e-22
ExecutionTime = 234.45 s  ClockTime = 238 s

Time = 0.000475

Courant Number mean: 0.00510141 max: 0.0963292
DILUPBiCGStab:  Solving for Ux, Initial residual = 0.0083588, Final residual = 1.7149e-05, No Iterations 5
DILUPBiCGStab:  Solving for Uy, Initial residual = 0.0129439, Final residual = 1.77679e-05, No Iterations 5
DILUPBiCGStab:  Solving for Uz, Initial residual = 0.0258989, Final residual = 7.15309e-05, No Iterations 5
linear solve U 287632
nonePCG:  Solving for p, Initial residual = 0.0117759, Final residual = 9.99081e-05, No Iterations 1331
linear solve p 4630917
time step continuity errors : sum local = 1.87398e-10, global = 8.14456e-23, cumulative = 1.01481e-21
nonePCG:  Solving for p, Initial residual = 0.0113723, Final residual = 9.97041e-05, No Iterations 1290
linear solve p 4515889
time step continuity errors : sum local = 1.78379e-10, global = 1.46701e-22, cumulative = 1.16151e-21
ExecutionTime = 244.1 s  ClockTime = 248 s

Time = 0.0005

Courant Number mean: 0.00522115 max: 0.0964235
DILUPBiCGStab:  Solving for Ux, Initial residual = 0.00794916, Final residual = 1.61732e-05, No Iterations 5
DILUPBiCGStab:  Solving for Uy, Initial residual = 0.0122225, Final residual = 1.67517e-05, No Iterations 5
DILUPBiCGStab:  Solving for Uz, Initial residual = 0.0247952, Final residual = 6.91628e-05, No Iterations 5
linear solve U 295143
nonePCG:  Solving for p, Initial residual = 0.0111213, Final residual = 9.9729e-05, No Iterations 1368
linear solve p 4781743
time step continuity errors : sum local = 1.90036e-10, global = -1.01847e-24, cumulative = 1.16049e-21
nonePCG:  Solving for p, Initial residual = 0.0107478, Final residual = 9.91106e-05, No Iterations 1252
linear solve p 4343492
time step continuity errors : sum local = 1.78187e-10, global = 1.68181e-22, cumulative = 1.32867e-21
ExecutionTime = 253.71 s  ClockTime = 257 s

End

Finalising parallel run
================================================================================
