hash: 5b595aedf22e780d385c9fd0b302ae5b
/*---------------------------------------------------------------------------*\
| =========                 |                                                 |
| \\      /  F ield         | OpenFOAM: The Open Source CFD Toolbox           |
|  \\    /   O peration     | Version:  v2106                                 |
|   \\  /    A nd           | Website:  www.openfoam.com                      |
|    \\/     M anipulation  |                                                 |
\*---------------------------------------------------------------------------*/
Build  : f815a12bba-20210902 OPENFOAM=2106
Arch   : "LSB;label=32;scalar=64"
Exec   : icoFoam -parallel
Date   : Mar 08 2022
Time   : 16:42:01
Host   : nla-gpu2.ianm.kit.edu
PID    : 158530
I/O    : uncollated
Case   : /home/greole/data/code/ogl_labbook/lidDrivenCavity/scaling/Variation_mesh/100/Variation_matrix_solver/CG_NoPrecond_HIP/Variation_mpiRank_gko/5/base
nProcs : 5
Hosts  :
(
    (nla-gpu2.ianm.kit.edu 5)
)
Pstream initialized with:
    floatTransfer      : 0
    nProcsSimpleSum    : 0
    commsType          : nonBlocking
    polling iterations : 0
trapFpe: Floating point exception trapping enabled (FOAM_SIGFPE).
fileModificationChecking : Monitoring run-time modified files using timeStampMaster (fileModificationSkew 5, maxFileModificationPolls 20)
allowSystemOperations : Allowing user-supplied system call operations

// * * * * * * * * * * * * * * * * * * * * * * * * * * * * * * * * * * * * * //
Create time

Create mesh for time = 0


PISO: Operating solver in PISO mode

Reading transportProperties

Reading field p

Reading field U

Reading/calculating face flux field phi


Starting time loop

Time = 0.0001

Courant Number mean: 0 max: 0
DILUPBiCGStab:  Solving for Ux, Initial residual = 1, Final residual = 4.80514e-06, No Iterations 5
DILUPBiCGStab:  Solving for Uy:  solution singularity
DILUPBiCGStab:  Solving for Uz:  solution singularity
linear solve U 91489
[OGL LOG][Proc: 0]global_index_init : 15316 mu s
[OGL LOG][Proc: 0]global_index_init : 4 mu s
[OGL LOG][Proc: 0]global_index_init : 3 mu s
[OGL LOG][Proc: 0]global_index_init : 3 mu s
[OGL LOG][Proc: 0]init_host_sparsity_pattern : 1132513 mu s
[OGL LOG][Proc: 0]update_host_matrix_data : 6970 mu s
[OGL LOG][Proc: 0]convert_coo_to_csr : 62418 mu s
[OGL LOG][Proc: 0]gather_initGuess : 371 mu s
[OGL LOG][Proc: 0]gather_RHS : 1057 mu s
[OGL LOG][Proc: 0]gather_global_matrix : 0 mu s
[OGL LOG][Proc: 0]generate_solver : 22 mu s
[OGL LOG][Proc: 0]solve : 664986 mu s
nonehipGKOCG:  Solving for p, Initial residual = 1, Final residual = 9.7837e-05, No Iterations 774
linear solve p 2532116
time step continuity errors : sum local = 1.7285e-09, global = 1.05153e-22, cumulative = 1.05153e-22
[OGL LOG][Proc: 0]global_index_init : 18 mu s
[OGL LOG][Proc: 0]global_index_init : 3 mu s
[OGL LOG][Proc: 0]global_index_init : 2 mu s
[OGL LOG][Proc: 0]global_index_init : 3 mu s
[OGL LOG][Proc: 0]update_host_matrix_data : 3313 mu s
[OGL LOG][Proc: 0]gather_initGuess : 346 mu s
[OGL LOG][Proc: 0]gather_RHS : 427 mu s
[OGL LOG][Proc: 0]gather_global_matrix : 0 mu s
[OGL LOG][Proc: 0]generate_solver : 2 mu s
[OGL LOG][Proc: 0]solve : 409720 mu s
nonehipGKOCG:  Solving for p, Initial residual = 1, Final residual = 7.50421e-05, No Iterations 721
linear solve p 508567
time step continuity errors : sum local = 7.2354e-10, global = 3.67021e-22, cumulative = 4.72173e-22
ExecutionTime = 4.75 s  ClockTime = 4 s

Time = 0.0002

Courant Number mean: 0.00201332 max: 0.0540371
DILUPBiCGStab:  Solving for Ux, Initial residual = 0.216464, Final residual = 3.65869e-06, No Iterations 5
DILUPBiCGStab:  Solving for Uy, Initial residual = 0.309938, Final residual = 2.61474e-06, No Iterations 5
DILUPBiCGStab:  Solving for Uz, Initial residual = 0.981386, Final residual = 6.15896e-06, No Iterations 5
linear solve U 169315
[OGL LOG][Proc: 0]global_index_init : 11 mu s
[OGL LOG][Proc: 0]global_index_init : 2 mu s
[OGL LOG][Proc: 0]global_index_init : 2 mu s
[OGL LOG][Proc: 0]global_index_init : 3 mu s
[OGL LOG][Proc: 0]update_host_matrix_data : 3334 mu s
[OGL LOG][Proc: 0]gather_initGuess : 397 mu s
[OGL LOG][Proc: 0]gather_RHS : 464 mu s
[OGL LOG][Proc: 0]gather_global_matrix : 0 mu s
[OGL LOG][Proc: 0]generate_solver : 2 mu s
[OGL LOG][Proc: 0]solve : 424522 mu s
nonehipGKOCG:  Solving for p, Initial residual = 1, Final residual = 9.78367e-05, No Iterations 729
linear solve p 522026
time step continuity errors : sum local = 1.61481e-09, global = 3.82366e-22, cumulative = 8.5454e-22
[OGL LOG][Proc: 0]global_index_init : 11 mu s
[OGL LOG][Proc: 0]global_index_init : 2 mu s
[OGL LOG][Proc: 0]global_index_init : 2 mu s
[OGL LOG][Proc: 0]global_index_init : 2 mu s
[OGL LOG][Proc: 0]update_host_matrix_data : 4037 mu s
[OGL LOG][Proc: 0]gather_initGuess : 292 mu s
[OGL LOG][Proc: 0]gather_RHS : 389 mu s
[OGL LOG][Proc: 0]gather_global_matrix : 0 mu s
[OGL LOG][Proc: 0]generate_solver : 2 mu s
[OGL LOG][Proc: 0]solve : 414870 mu s
nonehipGKOCG:  Solving for p, Initial residual = 1, Final residual = 5.54491e-05, No Iterations 726
linear solve p 512934
time step continuity errors : sum local = 6.03611e-10, global = -8.58019e-22, cumulative = -3.47933e-24
ExecutionTime = 6.48 s  ClockTime = 6 s

Time = 0.0003

Courant Number mean: 0.00317979 max: 0.0721774
DILUPBiCGStab:  Solving for Ux, Initial residual = 0.0963257, Final residual = 1.43178e-06, No Iterations 5
DILUPBiCGStab:  Solving for Uy, Initial residual = 0.140691, Final residual = 9.72064e-07, No Iterations 5
DILUPBiCGStab:  Solving for Uz, Initial residual = 0.205876, Final residual = 1.36965e-06, No Iterations 5
linear solve U 167810
[OGL LOG][Proc: 0]global_index_init : 10 mu s
[OGL LOG][Proc: 0]global_index_init : 2 mu s
[OGL LOG][Proc: 0]global_index_init : 2 mu s
[OGL LOG][Proc: 0]global_index_init : 3 mu s
[OGL LOG][Proc: 0]update_host_matrix_data : 3321 mu s
[OGL LOG][Proc: 0]gather_initGuess : 314 mu s
[OGL LOG][Proc: 0]gather_RHS : 419 mu s
[OGL LOG][Proc: 0]gather_global_matrix : 0 mu s
[OGL LOG][Proc: 0]generate_solver : 2 mu s
[OGL LOG][Proc: 0]solve : 428555 mu s
nonehipGKOCG:  Solving for p, Initial residual = 1, Final residual = 6.18797e-05, No Iterations 726
linear solve p 528018
time step continuity errors : sum local = 7.84083e-10, global = 1.24605e-22, cumulative = 1.21126e-22
[OGL LOG][Proc: 0]global_index_init : 19 mu s
[OGL LOG][Proc: 0]global_index_init : 2 mu s
[OGL LOG][Proc: 0]global_index_init : 2 mu s
[OGL LOG][Proc: 0]global_index_init : 2 mu s
[OGL LOG][Proc: 0]update_host_matrix_data : 3718 mu s
[OGL LOG][Proc: 0]gather_initGuess : 539 mu s
[OGL LOG][Proc: 0]gather_RHS : 469 mu s
[OGL LOG][Proc: 0]gather_global_matrix : 0 mu s
[OGL LOG][Proc: 0]generate_solver : 2 mu s
[OGL LOG][Proc: 0]solve : 401985 mu s
nonehipGKOCG:  Solving for p, Initial residual = 1, Final residual = 8.39358e-05, No Iterations 697
linear solve p 508394
time step continuity errors : sum local = 9.39561e-10, global = -1.15848e-22, cumulative = 5.27812e-24
ExecutionTime = 8.2 s  ClockTime = 7 s

Time = 0.0004

Courant Number mean: 0.00397984 max: 0.0793325
DILUPBiCGStab:  Solving for Ux, Initial residual = 0.059365, Final residual = 5.30447e-07, No Iterations 5
DILUPBiCGStab:  Solving for Uy, Initial residual = 0.0868088, Final residual = 5.09345e-07, No Iterations 5
DILUPBiCGStab:  Solving for Uz, Initial residual = 0.127373, Final residual = 7.00594e-07, No Iterations 5
linear solve U 168016
[OGL LOG][Proc: 0]global_index_init : 14 mu s
[OGL LOG][Proc: 0]global_index_init : 3 mu s
[OGL LOG][Proc: 0]global_index_init : 2 mu s
[OGL LOG][Proc: 0]global_index_init : 3 mu s
[OGL LOG][Proc: 0]update_host_matrix_data : 3340 mu s
[OGL LOG][Proc: 0]gather_initGuess : 326 mu s
[OGL LOG][Proc: 0]gather_RHS : 425 mu s
[OGL LOG][Proc: 0]gather_global_matrix : 0 mu s
[OGL LOG][Proc: 0]generate_solver : 2 mu s
[OGL LOG][Proc: 0]solve : 396288 mu s
nonehipGKOCG:  Solving for p, Initial residual = 1, Final residual = 8.32267e-05, No Iterations 676
linear solve p 497446
time step continuity errors : sum local = 9.9743e-10, global = -3.82572e-22, cumulative = -3.77294e-22
[OGL LOG][Proc: 0]global_index_init : 28 mu s
[OGL LOG][Proc: 0]global_index_init : 3 mu s
[OGL LOG][Proc: 0]global_index_init : 3 mu s
[OGL LOG][Proc: 0]global_index_init : 2 mu s
[OGL LOG][Proc: 0]update_host_matrix_data : 3995 mu s
[OGL LOG][Proc: 0]gather_initGuess : 308 mu s
[OGL LOG][Proc: 0]gather_RHS : 380 mu s
[OGL LOG][Proc: 0]gather_global_matrix : 0 mu s
[OGL LOG][Proc: 0]generate_solver : 2 mu s
[OGL LOG][Proc: 0]solve : 398239 mu s
nonehipGKOCG:  Solving for p, Initial residual = 1, Final residual = 8.20129e-05, No Iterations 703
linear solve p 499478
time step continuity errors : sum local = 9.47764e-10, global = -9.56267e-22, cumulative = -1.33356e-21
ExecutionTime = 9.87 s  ClockTime = 8 s

Time = 0.0005

Courant Number mean: 0.00460129 max: 0.082885
DILUPBiCGStab:  Solving for Ux, Initial residual = 0.04286, Final residual = 3.68009e-07, No Iterations 5
DILUPBiCGStab:  Solving for Uy, Initial residual = 0.0618652, Final residual = 3.05609e-07, No Iterations 5
DILUPBiCGStab:  Solving for Uz, Initial residual = 0.0974418, Final residual = 4.9921e-07, No Iterations 5
linear solve U 167904
[OGL LOG][Proc: 0]global_index_init : 12 mu s
[OGL LOG][Proc: 0]global_index_init : 3 mu s
[OGL LOG][Proc: 0]global_index_init : 2 mu s
[OGL LOG][Proc: 0]global_index_init : 3 mu s
[OGL LOG][Proc: 0]update_host_matrix_data : 3330 mu s
[OGL LOG][Proc: 0]gather_initGuess : 358 mu s
[OGL LOG][Proc: 0]gather_RHS : 426 mu s
[OGL LOG][Proc: 0]gather_global_matrix : 0 mu s
[OGL LOG][Proc: 0]generate_solver : 2 mu s
[OGL LOG][Proc: 0]solve : 416646 mu s
nonehipGKOCG:  Solving for p, Initial residual = 1, Final residual = 4.82463e-05, No Iterations 729
linear solve p 513594
time step continuity errors : sum local = 5.76982e-10, global = 7.99859e-22, cumulative = -5.33702e-22
[OGL LOG][Proc: 0]global_index_init : 13 mu s
[OGL LOG][Proc: 0]global_index_init : 2 mu s
[OGL LOG][Proc: 0]global_index_init : 3 mu s
[OGL LOG][Proc: 0]global_index_init : 5 mu s
[OGL LOG][Proc: 0]update_host_matrix_data : 3292 mu s
[OGL LOG][Proc: 0]gather_initGuess : 351 mu s
[OGL LOG][Proc: 0]gather_RHS : 447 mu s
[OGL LOG][Proc: 0]gather_global_matrix : 0 mu s
[OGL LOG][Proc: 0]generate_solver : 2 mu s
[OGL LOG][Proc: 0]solve : 406816 mu s
nonehipGKOCG:  Solving for p, Initial residual = 1, Final residual = 8.71381e-05, No Iterations 697
linear solve p 503723
time step continuity errors : sum local = 1.02186e-09, global = 4.6145e-23, cumulative = -4.87557e-22
ExecutionTime = 11.58 s  ClockTime = 10 s

End

Finalising parallel run
================================================================================
hash: 78728a0975e8dffd51760a8a1fb8da39
/*---------------------------------------------------------------------------*\
| =========                 |                                                 |
| \\      /  F ield         | OpenFOAM: The Open Source CFD Toolbox           |
|  \\    /   O peration     | Version:  v2106                                 |
|   \\  /    A nd           | Website:  www.openfoam.com                      |
|    \\/     M anipulation  |                                                 |
\*---------------------------------------------------------------------------*/
Build  : f815a12bba-20210902 OPENFOAM=2106
Arch   : "LSB;label=32;scalar=64"
Exec   : icoFoam -parallel
Date   : Mar 08 2022
Time   : 16:42:11
Host   : nla-gpu2.ianm.kit.edu
PID    : 158596
I/O    : uncollated
Case   : /home/greole/data/code/ogl_labbook/lidDrivenCavity/scaling/Variation_mesh/100/Variation_matrix_solver/CG_NoPrecond_HIP/Variation_mpiRank_gko/8/base
nProcs : 8
Hosts  :
(
    (nla-gpu2.ianm.kit.edu 8)
)
Pstream initialized with:
    floatTransfer      : 0
    nProcsSimpleSum    : 0
    commsType          : nonBlocking
    polling iterations : 0
trapFpe: Floating point exception trapping enabled (FOAM_SIGFPE).
fileModificationChecking : Monitoring run-time modified files using timeStampMaster (fileModificationSkew 5, maxFileModificationPolls 20)
allowSystemOperations : Allowing user-supplied system call operations

// * * * * * * * * * * * * * * * * * * * * * * * * * * * * * * * * * * * * * //
Create time

Create mesh for time = 0


PISO: Operating solver in PISO mode

Reading transportProperties

Reading field p

Reading field U

Reading/calculating face flux field phi


Starting time loop

Time = 0.0001

Courant Number mean: 0 max: 0
DILUPBiCGStab:  Solving for Ux, Initial residual = 1, Final residual = 4.82e-06, No Iterations 5
DILUPBiCGStab:  Solving for Uy:  solution singularity
DILUPBiCGStab:  Solving for Uz:  solution singularity
linear solve U 57077
[OGL LOG][Proc: 0]global_index_init : 10782 mu s
[OGL LOG][Proc: 0]global_index_init : 3 mu s
[OGL LOG][Proc: 0]global_index_init : 5 mu s
[OGL LOG][Proc: 0]global_index_init : 4 mu s
[OGL LOG][Proc: 0]init_host_sparsity_pattern : 570212 mu s
[OGL LOG][Proc: 0]update_host_matrix_data : 3639 mu s
[OGL LOG][Proc: 0]convert_coo_to_csr : 68061 mu s
[OGL LOG][Proc: 0]gather_initGuess : 232 mu s
[OGL LOG][Proc: 0]gather_RHS : 121 mu s
[OGL LOG][Proc: 0]gather_global_matrix : 0 mu s
[OGL LOG][Proc: 0]generate_solver : 19 mu s
[OGL LOG][Proc: 0]solve : 664166 mu s
nonehipGKOCG:  Solving for p, Initial residual = 1, Final residual = 9.7144e-05, No Iterations 795
linear solve p 2015263
time step continuity errors : sum local = 1.7162e-09, global = -5.06041e-22, cumulative = -5.06041e-22
[OGL LOG][Proc: 0]global_index_init : 21 mu s
[OGL LOG][Proc: 0]global_index_init : 2 mu s
[OGL LOG][Proc: 0]global_index_init : 5 mu s
[OGL LOG][Proc: 0]global_index_init : 4 mu s
[OGL LOG][Proc: 0]update_host_matrix_data : 1907 mu s
[OGL LOG][Proc: 0]gather_initGuess : 998 mu s
[OGL LOG][Proc: 0]gather_RHS : 106 mu s
[OGL LOG][Proc: 0]gather_global_matrix : 0 mu s
[OGL LOG][Proc: 0]generate_solver : 3 mu s
[OGL LOG][Proc: 0]solve : 457914 mu s
nonehipGKOCG:  Solving for p, Initial residual = 1, Final residual = 9.44828e-05, No Iterations 776
linear solve p 515205
time step continuity errors : sum local = 9.10981e-10, global = 2.40959e-22, cumulative = -2.65082e-22
ExecutionTime = 3.81 s  ClockTime = 4 s

Time = 0.0002

Courant Number mean: 0.00201332 max: 0.0540371
DILUPBiCGStab:  Solving for Ux, Initial residual = 0.216464, Final residual = 3.8456e-06, No Iterations 5
DILUPBiCGStab:  Solving for Uy, Initial residual = 0.309938, Final residual = 2.74235e-06, No Iterations 5
DILUPBiCGStab:  Solving for Uz, Initial residual = 0.981394, Final residual = 5.65846e-06, No Iterations 5
linear solve U 112489
[OGL LOG][Proc: 0]global_index_init : 25 mu s
[OGL LOG][Proc: 0]global_index_init : 3 mu s
[OGL LOG][Proc: 0]global_index_init : 2 mu s
[OGL LOG][Proc: 0]global_index_init : 4 mu s
[OGL LOG][Proc: 0]update_host_matrix_data : 2925 mu s
[OGL LOG][Proc: 0]gather_initGuess : 975 mu s
[OGL LOG][Proc: 0]gather_RHS : 102 mu s
[OGL LOG][Proc: 0]gather_global_matrix : 0 mu s
[OGL LOG][Proc: 0]generate_solver : 3 mu s
[OGL LOG][Proc: 0]solve : 436888 mu s
nonehipGKOCG:  Solving for p, Initial residual = 1, Final residual = 5.80902e-05, No Iterations 776
linear solve p 493529
time step continuity errors : sum local = 9.58768e-10, global = 2.37297e-24, cumulative = -2.62709e-22
[OGL LOG][Proc: 0]global_index_init : 15 mu s
[OGL LOG][Proc: 0]global_index_init : 2 mu s
[OGL LOG][Proc: 0]global_index_init : 4 mu s
[OGL LOG][Proc: 0]global_index_init : 5 mu s
[OGL LOG][Proc: 0]update_host_matrix_data : 1913 mu s
[OGL LOG][Proc: 0]gather_initGuess : 979 mu s
[OGL LOG][Proc: 0]gather_RHS : 143 mu s
[OGL LOG][Proc: 0]gather_global_matrix : 0 mu s
[OGL LOG][Proc: 0]generate_solver : 2 mu s
[OGL LOG][Proc: 0]solve : 430414 mu s
nonehipGKOCG:  Solving for p, Initial residual = 1, Final residual = 5.38291e-05, No Iterations 776
linear solve p 507953
time step continuity errors : sum local = 5.85993e-10, global = -5.07181e-22, cumulative = -7.69891e-22
ExecutionTime = 5.41 s  ClockTime = 5 s

Time = 0.0003

Courant Number mean: 0.00317979 max: 0.0721774
DILUPBiCGStab:  Solving for Ux, Initial residual = 0.0963257, Final residual = 1.48103e-06, No Iterations 5
DILUPBiCGStab:  Solving for Uy, Initial residual = 0.140691, Final residual = 9.67791e-07, No Iterations 5
DILUPBiCGStab:  Solving for Uz, Initial residual = 0.205633, Final residual = 1.2605e-06, No Iterations 5
linear solve U 111427
[OGL LOG][Proc: 0]global_index_init : 22 mu s
[OGL LOG][Proc: 0]global_index_init : 2 mu s
[OGL LOG][Proc: 0]global_index_init : 3 mu s
[OGL LOG][Proc: 0]global_index_init : 4 mu s
[OGL LOG][Proc: 0]update_host_matrix_data : 1914 mu s
[OGL LOG][Proc: 0]gather_initGuess : 993 mu s
[OGL LOG][Proc: 0]gather_RHS : 107 mu s
[OGL LOG][Proc: 0]gather_global_matrix : 0 mu s
[OGL LOG][Proc: 0]generate_solver : 2 mu s
[OGL LOG][Proc: 0]solve : 424181 mu s
nonehipGKOCG:  Solving for p, Initial residual = 1, Final residual = 3.37397e-05, No Iterations 776
linear solve p 480772
time step continuity errors : sum local = 4.27506e-10, global = 1.27224e-22, cumulative = -6.42666e-22
[OGL LOG][Proc: 0]global_index_init : 33 mu s
[OGL LOG][Proc: 0]global_index_init : 3 mu s
[OGL LOG][Proc: 0]global_index_init : 5 mu s
[OGL LOG][Proc: 0]global_index_init : 3 mu s
[OGL LOG][Proc: 0]update_host_matrix_data : 1931 mu s
[OGL LOG][Proc: 0]gather_initGuess : 1182 mu s
[OGL LOG][Proc: 0]gather_RHS : 108 mu s
[OGL LOG][Proc: 0]gather_global_matrix : 0 mu s
[OGL LOG][Proc: 0]generate_solver : 2 mu s
[OGL LOG][Proc: 0]solve : 448407 mu s
nonehipGKOCG:  Solving for p, Initial residual = 1, Final residual = 4.17993e-05, No Iterations 776
linear solve p 506752
time step continuity errors : sum local = 4.67896e-10, global = 1.66152e-22, cumulative = -4.76514e-22
ExecutionTime = 6.99 s  ClockTime = 6 s

Time = 0.0004

Courant Number mean: 0.00397984 max: 0.0793325
DILUPBiCGStab:  Solving for Ux, Initial residual = 0.059365, Final residual = 5.16934e-07, No Iterations 5
DILUPBiCGStab:  Solving for Uy, Initial residual = 0.0868087, Final residual = 4.58062e-07, No Iterations 5
DILUPBiCGStab:  Solving for Uz, Initial residual = 0.127267, Final residual = 6.35592e-07, No Iterations 5
linear solve U 110623
[OGL LOG][Proc: 0]global_index_init : 17 mu s
[OGL LOG][Proc: 0]global_index_init : 3 mu s
[OGL LOG][Proc: 0]global_index_init : 5 mu s
[OGL LOG][Proc: 0]global_index_init : 3 mu s
[OGL LOG][Proc: 0]update_host_matrix_data : 2934 mu s
[OGL LOG][Proc: 0]gather_initGuess : 963 mu s
[OGL LOG][Proc: 0]gather_RHS : 119 mu s
[OGL LOG][Proc: 0]gather_global_matrix : 0 mu s
[OGL LOG][Proc: 0]generate_solver : 2 mu s
[OGL LOG][Proc: 0]solve : 428927 mu s
nonehipGKOCG:  Solving for p, Initial residual = 1, Final residual = 4.63023e-05, No Iterations 776
linear solve p 488997
time step continuity errors : sum local = 5.54856e-10, global = 2.5502e-22, cumulative = -2.21494e-22
[OGL LOG][Proc: 0]global_index_init : 26 mu s
[OGL LOG][Proc: 0]global_index_init : 2 mu s
[OGL LOG][Proc: 0]global_index_init : 4 mu s
[OGL LOG][Proc: 0]global_index_init : 3 mu s
[OGL LOG][Proc: 0]update_host_matrix_data : 1908 mu s
[OGL LOG][Proc: 0]gather_initGuess : 999 mu s
[OGL LOG][Proc: 0]gather_RHS : 118 mu s
[OGL LOG][Proc: 0]gather_global_matrix : 0 mu s
[OGL LOG][Proc: 0]generate_solver : 2 mu s
[OGL LOG][Proc: 0]solve : 421949 mu s
nonehipGKOCG:  Solving for p, Initial residual = 1, Final residual = 3.95078e-05, No Iterations 776
linear solve p 476516
time step continuity errors : sum local = 4.56586e-10, global = 1.50828e-23, cumulative = -2.06412e-22
ExecutionTime = 8.55 s  ClockTime = 7 s

Time = 0.0005

Courant Number mean: 0.00460129 max: 0.082885
DILUPBiCGStab:  Solving for Ux, Initial residual = 0.04286, Final residual = 3.64541e-07, No Iterations 5
DILUPBiCGStab:  Solving for Uy, Initial residual = 0.0618651, Final residual = 2.6236e-07, No Iterations 5
DILUPBiCGStab:  Solving for Uz, Initial residual = 0.0973896, Final residual = 4.52803e-07, No Iterations 5
linear solve U 106666
[OGL LOG][Proc: 0]global_index_init : 23 mu s
[OGL LOG][Proc: 0]global_index_init : 3 mu s
[OGL LOG][Proc: 0]global_index_init : 4 mu s
[OGL LOG][Proc: 0]global_index_init : 4 mu s
[OGL LOG][Proc: 0]update_host_matrix_data : 1908 mu s
[OGL LOG][Proc: 0]gather_initGuess : 990 mu s
[OGL LOG][Proc: 0]gather_RHS : 103 mu s
[OGL LOG][Proc: 0]gather_global_matrix : 0 mu s
[OGL LOG][Proc: 0]generate_solver : 2 mu s
[OGL LOG][Proc: 0]solve : 425335 mu s
nonehipGKOCG:  Solving for p, Initial residual = 1, Final residual = 5.20924e-05, No Iterations 776
linear solve p 482228
time step continuity errors : sum local = 6.2289e-10, global = -8.756e-22, cumulative = -1.08201e-21
[OGL LOG][Proc: 0]global_index_init : 17 mu s
[OGL LOG][Proc: 0]global_index_init : 3 mu s
[OGL LOG][Proc: 0]global_index_init : 4 mu s
[OGL LOG][Proc: 0]global_index_init : 3 mu s
[OGL LOG][Proc: 0]update_host_matrix_data : 1934 mu s
[OGL LOG][Proc: 0]gather_initGuess : 1134 mu s
[OGL LOG][Proc: 0]gather_RHS : 108 mu s
[OGL LOG][Proc: 0]gather_global_matrix : 0 mu s
[OGL LOG][Proc: 0]generate_solver : 3 mu s
[OGL LOG][Proc: 0]solve : 446956 mu s
nonehipGKOCG:  Solving for p, Initial residual = 1, Final residual = 4.10267e-05, No Iterations 776
linear solve p 502144
time step continuity errors : sum local = 4.81144e-10, global = -7.27633e-22, cumulative = -1.80965e-21
ExecutionTime = 10.12 s  ClockTime = 8 s

End

Finalising parallel run
================================================================================
hash: 174a62c462d307cc8dd21f61b726d42c
/*---------------------------------------------------------------------------*\
| =========                 |                                                 |
| \\      /  F ield         | OpenFOAM: The Open Source CFD Toolbox           |
|  \\    /   O peration     | Version:  v2106                                 |
|   \\  /    A nd           | Website:  www.openfoam.com                      |
|    \\/     M anipulation  |                                                 |
\*---------------------------------------------------------------------------*/
Build  : f815a12bba-20210902 OPENFOAM=2106
Arch   : "LSB;label=32;scalar=64"
Exec   : icoFoam -parallel
Date   : Mar 08 2022
Time   : 16:42:20
Host   : nla-gpu2.ianm.kit.edu
PID    : 158691
I/O    : uncollated
Case   : /home/greole/data/code/ogl_labbook/lidDrivenCavity/scaling/Variation_mesh/100/Variation_matrix_solver/CG_NoPrecond_HIP/Variation_mpiRank_gko/7/base
nProcs : 7
Hosts  :
(
    (nla-gpu2.ianm.kit.edu 7)
)
Pstream initialized with:
    floatTransfer      : 0
    nProcsSimpleSum    : 0
    commsType          : nonBlocking
    polling iterations : 0
trapFpe: Floating point exception trapping enabled (FOAM_SIGFPE).
fileModificationChecking : Monitoring run-time modified files using timeStampMaster (fileModificationSkew 5, maxFileModificationPolls 20)
allowSystemOperations : Allowing user-supplied system call operations

// * * * * * * * * * * * * * * * * * * * * * * * * * * * * * * * * * * * * * //
Create time

Create mesh for time = 0


PISO: Operating solver in PISO mode

Reading transportProperties

Reading field p

Reading field U

Reading/calculating face flux field phi


Starting time loop

Time = 0.0001

Courant Number mean: 0 max: 0
DILUPBiCGStab:  Solving for Ux, Initial residual = 1, Final residual = 5.16041e-06, No Iterations 5
DILUPBiCGStab:  Solving for Uy:  solution singularity
DILUPBiCGStab:  Solving for Uz:  solution singularity
linear solve U 64099
[OGL LOG][Proc: 0]global_index_init : 16953 mu s
[OGL LOG][Proc: 0]global_index_init : 3 mu s
[OGL LOG][Proc: 0]global_index_init : 3 mu s
[OGL LOG][Proc: 0]global_index_init : 3 mu s
[OGL LOG][Proc: 0]init_host_sparsity_pattern : 698589 mu s
[OGL LOG][Proc: 0]update_host_matrix_data : 4195 mu s
[OGL LOG][Proc: 0]convert_coo_to_csr : 70667 mu s
[OGL LOG][Proc: 0]gather_initGuess : 310 mu s
[OGL LOG][Proc: 0]gather_RHS : 599 mu s
[OGL LOG][Proc: 0]gather_global_matrix : 0 mu s
[OGL LOG][Proc: 0]generate_solver : 17 mu s
[OGL LOG][Proc: 0]solve : 530645 mu s
nonehipGKOCG:  Solving for p, Initial residual = 1, Final residual = 9.78765e-05, No Iterations 777
linear solve p 2027747
time step continuity errors : sum local = 1.72928e-09, global = 1.61358e-21, cumulative = 1.61358e-21
[OGL LOG][Proc: 0]global_index_init : 13 mu s
[OGL LOG][Proc: 0]global_index_init : 2 mu s
[OGL LOG][Proc: 0]global_index_init : 3 mu s
[OGL LOG][Proc: 0]global_index_init : 3 mu s
[OGL LOG][Proc: 0]update_host_matrix_data : 3177 mu s
[OGL LOG][Proc: 0]gather_initGuess : 322 mu s
[OGL LOG][Proc: 0]gather_RHS : 382 mu s
[OGL LOG][Proc: 0]gather_global_matrix : 0 mu s
[OGL LOG][Proc: 0]generate_solver : 3 mu s
[OGL LOG][Proc: 0]solve : 370093 mu s
nonehipGKOCG:  Solving for p, Initial residual = 1, Final residual = 2.96483e-05, No Iterations 776
linear solve p 433429
time step continuity errors : sum local = 2.85864e-10, global = 3.68803e-22, cumulative = 1.98238e-21
ExecutionTime = 3.83 s  ClockTime = 3 s

Time = 0.0002

Courant Number mean: 0.00201332 max: 0.0540371
DILUPBiCGStab:  Solving for Ux, Initial residual = 0.216464, Final residual = 4.7988e-06, No Iterations 5
DILUPBiCGStab:  Solving for Uy, Initial residual = 0.309938, Final residual = 3.4486e-06, No Iterations 5
DILUPBiCGStab:  Solving for Uz, Initial residual = 0.981352, Final residual = 8.27368e-06, No Iterations 5
linear solve U 119028
[OGL LOG][Proc: 0]global_index_init : 15 mu s
[OGL LOG][Proc: 0]global_index_init : 3 mu s
[OGL LOG][Proc: 0]global_index_init : 3 mu s
[OGL LOG][Proc: 0]global_index_init : 3 mu s
[OGL LOG][Proc: 0]update_host_matrix_data : 2222 mu s
[OGL LOG][Proc: 0]gather_initGuess : 370 mu s
[OGL LOG][Proc: 0]gather_RHS : 418 mu s
[OGL LOG][Proc: 0]gather_global_matrix : 0 mu s
[OGL LOG][Proc: 0]generate_solver : 2 mu s
[OGL LOG][Proc: 0]solve : 357359 mu s
nonehipGKOCG:  Solving for p, Initial residual = 1, Final residual = 2.99976e-05, No Iterations 776
linear solve p 426349
time step continuity errors : sum local = 4.95134e-10, global = -5.65604e-23, cumulative = 1.92582e-21
[OGL LOG][Proc: 0]global_index_init : 13 mu s
[OGL LOG][Proc: 0]global_index_init : 2 mu s
[OGL LOG][Proc: 0]global_index_init : 2 mu s
[OGL LOG][Proc: 0]global_index_init : 3 mu s
[OGL LOG][Proc: 0]update_host_matrix_data : 2224 mu s
[OGL LOG][Proc: 0]gather_initGuess : 395 mu s
[OGL LOG][Proc: 0]gather_RHS : 437 mu s
[OGL LOG][Proc: 0]gather_global_matrix : 0 mu s
[OGL LOG][Proc: 0]generate_solver : 2 mu s
[OGL LOG][Proc: 0]solve : 367922 mu s
nonehipGKOCG:  Solving for p, Initial residual = 1, Final residual = 8.95716e-05, No Iterations 745
linear solve p 424245
time step continuity errors : sum local = 9.75194e-10, global = -5.7327e-22, cumulative = 1.35255e-21
ExecutionTime = 5.28 s  ClockTime = 4 s

Time = 0.0003

Courant Number mean: 0.00317979 max: 0.0721774
DILUPBiCGStab:  Solving for Ux, Initial residual = 0.0963256, Final residual = 1.80619e-06, No Iterations 5
DILUPBiCGStab:  Solving for Uy, Initial residual = 0.140692, Final residual = 1.20467e-06, No Iterations 5
DILUPBiCGStab:  Solving for Uz, Initial residual = 0.205786, Final residual = 1.83985e-06, No Iterations 5
linear solve U 120794
[OGL LOG][Proc: 0]global_index_init : 24 mu s
[OGL LOG][Proc: 0]global_index_init : 2 mu s
[OGL LOG][Proc: 0]global_index_init : 2 mu s
[OGL LOG][Proc: 0]global_index_init : 3 mu s
[OGL LOG][Proc: 0]update_host_matrix_data : 3079 mu s
[OGL LOG][Proc: 0]gather_initGuess : 253 mu s
[OGL LOG][Proc: 0]gather_RHS : 389 mu s
[OGL LOG][Proc: 0]gather_global_matrix : 0 mu s
[OGL LOG][Proc: 0]generate_solver : 2 mu s
[OGL LOG][Proc: 0]solve : 350137 mu s
nonehipGKOCG:  Solving for p, Initial residual = 1, Final residual = 4.94083e-05, No Iterations 755
linear solve p 414811
time step continuity errors : sum local = 6.26027e-10, global = -7.17485e-22, cumulative = 6.35064e-22
[OGL LOG][Proc: 0]global_index_init : 13 mu s
[OGL LOG][Proc: 0]global_index_init : 3 mu s
[OGL LOG][Proc: 0]global_index_init : 3 mu s
[OGL LOG][Proc: 0]global_index_init : 3 mu s
[OGL LOG][Proc: 0]update_host_matrix_data : 2260 mu s
[OGL LOG][Proc: 0]gather_initGuess : 393 mu s
[OGL LOG][Proc: 0]gather_RHS : 390 mu s
[OGL LOG][Proc: 0]gather_global_matrix : 0 mu s
[OGL LOG][Proc: 0]generate_solver : 2 mu s
[OGL LOG][Proc: 0]solve : 341127 mu s
nonehipGKOCG:  Solving for p, Initial residual = 1, Final residual = 5.99761e-05, No Iterations 751
linear solve p 403219
time step continuity errors : sum local = 6.7141e-10, global = -4.31907e-22, cumulative = 2.03156e-22
ExecutionTime = 6.69 s  ClockTime = 5 s

Time = 0.0004

Courant Number mean: 0.00397984 max: 0.0793325
DILUPBiCGStab:  Solving for Ux, Initial residual = 0.059365, Final residual = 6.68382e-07, No Iterations 5
DILUPBiCGStab:  Solving for Uy, Initial residual = 0.0868089, Final residual = 5.60338e-07, No Iterations 5
DILUPBiCGStab:  Solving for Uz, Initial residual = 0.127398, Final residual = 9.88849e-07, No Iterations 5
linear solve U 122358
[OGL LOG][Proc: 0]global_index_init : 25 mu s
[OGL LOG][Proc: 0]global_index_init : 3 mu s
[OGL LOG][Proc: 0]global_index_init : 3 mu s
[OGL LOG][Proc: 0]global_index_init : 3 mu s
[OGL LOG][Proc: 0]update_host_matrix_data : 2176 mu s
[OGL LOG][Proc: 0]gather_initGuess : 415 mu s
[OGL LOG][Proc: 0]gather_RHS : 389 mu s
[OGL LOG][Proc: 0]gather_global_matrix : 0 mu s
[OGL LOG][Proc: 0]generate_solver : 3 mu s
[OGL LOG][Proc: 0]solve : 327947 mu s
nonehipGKOCG:  Solving for p, Initial residual = 1, Final residual = 6.96722e-05, No Iterations 721
linear solve p 384735
time step continuity errors : sum local = 8.34975e-10, global = -2.31343e-22, cumulative = -2.81867e-23
[OGL LOG][Proc: 0]global_index_init : 23 mu s
[OGL LOG][Proc: 0]global_index_init : 2 mu s
[OGL LOG][Proc: 0]global_index_init : 4 mu s
[OGL LOG][Proc: 0]global_index_init : 3 mu s
[OGL LOG][Proc: 0]update_host_matrix_data : 2242 mu s
[OGL LOG][Proc: 0]gather_initGuess : 406 mu s
[OGL LOG][Proc: 0]gather_RHS : 395 mu s
[OGL LOG][Proc: 0]gather_global_matrix : 0 mu s
[OGL LOG][Proc: 0]generate_solver : 2 mu s
[OGL LOG][Proc: 0]solve : 338708 mu s
nonehipGKOCG:  Solving for p, Initial residual = 1, Final residual = 4.60326e-05, No Iterations 757
linear solve p 394231
time step continuity errors : sum local = 5.31997e-10, global = -2.35048e-22, cumulative = -2.63235e-22
ExecutionTime = 8.06 s  ClockTime = 6 s

Time = 0.0005

Courant Number mean: 0.00460129 max: 0.082885
DILUPBiCGStab:  Solving for Ux, Initial residual = 0.0428599, Final residual = 4.66968e-07, No Iterations 5
DILUPBiCGStab:  Solving for Uy, Initial residual = 0.0618654, Final residual = 3.25091e-07, No Iterations 5
DILUPBiCGStab:  Solving for Uz, Initial residual = 0.097288, Final residual = 7.09932e-07, No Iterations 5
linear solve U 119916
[OGL LOG][Proc: 0]global_index_init : 21 mu s
[OGL LOG][Proc: 0]global_index_init : 2 mu s
[OGL LOG][Proc: 0]global_index_init : 3 mu s
[OGL LOG][Proc: 0]global_index_init : 3 mu s
[OGL LOG][Proc: 0]update_host_matrix_data : 2201 mu s
[OGL LOG][Proc: 0]gather_initGuess : 400 mu s
[OGL LOG][Proc: 0]gather_RHS : 410 mu s
[OGL LOG][Proc: 0]gather_global_matrix : 0 mu s
[OGL LOG][Proc: 0]generate_solver : 3 mu s
[OGL LOG][Proc: 0]solve : 334758 mu s
nonehipGKOCG:  Solving for p, Initial residual = 1, Final residual = 4.86566e-05, No Iterations 751
linear solve p 391486
time step continuity errors : sum local = 5.81859e-10, global = -3.22032e-22, cumulative = -5.85266e-22
[OGL LOG][Proc: 0]global_index_init : 13 mu s
[OGL LOG][Proc: 0]global_index_init : 3 mu s
[OGL LOG][Proc: 0]global_index_init : 3 mu s
[OGL LOG][Proc: 0]global_index_init : 3 mu s
[OGL LOG][Proc: 0]update_host_matrix_data : 2295 mu s
[OGL LOG][Proc: 0]gather_initGuess : 363 mu s
[OGL LOG][Proc: 0]gather_RHS : 377 mu s
[OGL LOG][Proc: 0]gather_global_matrix : 0 mu s
[OGL LOG][Proc: 0]generate_solver : 2 mu s
[OGL LOG][Proc: 0]solve : 331867 mu s
nonehipGKOCG:  Solving for p, Initial residual = 1, Final residual = 5.55348e-05, No Iterations 751
linear solve p 387590
time step continuity errors : sum local = 6.51303e-10, global = -4.7851e-22, cumulative = -1.06378e-21
ExecutionTime = 9.42 s  ClockTime = 7 s

End

Finalising parallel run
================================================================================
hash: d4c4833109de25d8bdab237f0abb669c
/*---------------------------------------------------------------------------*\
| =========                 |                                                 |
| \\      /  F ield         | OpenFOAM: The Open Source CFD Toolbox           |
|  \\    /   O peration     | Version:  v2106                                 |
|   \\  /    A nd           | Website:  www.openfoam.com                      |
|    \\/     M anipulation  |                                                 |
\*---------------------------------------------------------------------------*/
Build  : f815a12bba-20210902 OPENFOAM=2106
Arch   : "LSB;label=32;scalar=64"
Exec   : icoFoam -parallel
Date   : Mar 08 2022
Time   : 16:42:27
Host   : nla-gpu2.ianm.kit.edu
PID    : 158783
I/O    : uncollated
Case   : /home/greole/data/code/ogl_labbook/lidDrivenCavity/scaling/Variation_mesh/100/Variation_matrix_solver/CG_NoPrecond_HIP/Variation_mpiRank_gko/2/base
nProcs : 2
Hosts  :
(
    (nla-gpu2.ianm.kit.edu 2)
)
Pstream initialized with:
    floatTransfer      : 0
    nProcsSimpleSum    : 0
    commsType          : nonBlocking
    polling iterations : 0
trapFpe: Floating point exception trapping enabled (FOAM_SIGFPE).
fileModificationChecking : Monitoring run-time modified files using timeStampMaster (fileModificationSkew 5, maxFileModificationPolls 20)
allowSystemOperations : Allowing user-supplied system call operations

// * * * * * * * * * * * * * * * * * * * * * * * * * * * * * * * * * * * * * //
Create time

Create mesh for time = 0


PISO: Operating solver in PISO mode

Reading transportProperties

Reading field p

Reading field U

Reading/calculating face flux field phi


Starting time loop

Time = 0.0001

Courant Number mean: 0 max: 0
DILUPBiCGStab:  Solving for Ux, Initial residual = 1, Final residual = 3.63147e-06, No Iterations 5
DILUPBiCGStab:  Solving for Uy:  solution singularity
DILUPBiCGStab:  Solving for Uz:  solution singularity
linear solve U 253550
[OGL LOG][Proc: 0]global_index_init : 28 mu s
[OGL LOG][Proc: 0]global_index_init : 1 mu s
[OGL LOG][Proc: 0]global_index_init : 1 mu s
[OGL LOG][Proc: 0]global_index_init : 1 mu s
[OGL LOG][Proc: 0]init_host_sparsity_pattern : 2872341 mu s
[OGL LOG][Proc: 0]update_host_matrix_data : 16183 mu s
[OGL LOG][Proc: 0]convert_coo_to_csr : 40190 mu s
[OGL LOG][Proc: 0]gather_initGuess : 612 mu s
[OGL LOG][Proc: 0]gather_RHS : 1471 mu s
[OGL LOG][Proc: 0]gather_global_matrix : 0 mu s
[OGL LOG][Proc: 0]generate_solver : 15 mu s
[OGL LOG][Proc: 0]solve : 652966 mu s
nonehipGKOCG:  Solving for p, Initial residual = 1, Final residual = 9.70362e-05, No Iterations 795
linear solve p 4248184
time step continuity errors : sum local = 1.71433e-09, global = 2.52362e-22, cumulative = 2.52362e-22
[OGL LOG][Proc: 0]global_index_init : 9 mu s
[OGL LOG][Proc: 0]global_index_init : 1 mu s
[OGL LOG][Proc: 0]global_index_init : 0 mu s
[OGL LOG][Proc: 0]global_index_init : 0 mu s
[OGL LOG][Proc: 0]update_host_matrix_data : 14751 mu s
[OGL LOG][Proc: 0]gather_initGuess : 412 mu s
[OGL LOG][Proc: 0]gather_RHS : 706 mu s
[OGL LOG][Proc: 0]gather_global_matrix : 0 mu s
[OGL LOG][Proc: 0]generate_solver : 3 mu s
[OGL LOG][Proc: 0]solve : 412387 mu s
nonehipGKOCG:  Solving for p, Initial residual = 1, Final residual = 9.44873e-05, No Iterations 776
linear solve p 601662
time step continuity errors : sum local = 9.11024e-10, global = -3.20393e-22, cumulative = -6.80311e-23
ExecutionTime = 8.49 s  ClockTime = 8 s

Time = 0.0002

Courant Number mean: 0.00201333 max: 0.0540371
DILUPBiCGStab:  Solving for Ux, Initial residual = 0.216464, Final residual = 2.34815e-06, No Iterations 5
DILUPBiCGStab:  Solving for Uy, Initial residual = 0.309938, Final residual = 7.28982e-07, No Iterations 5
DILUPBiCGStab:  Solving for Uz, Initial residual = 0.981405, Final residual = 2.65655e-06, No Iterations 5
linear solve U 485905
[OGL LOG][Proc: 0]global_index_init : 12 mu s
[OGL LOG][Proc: 0]global_index_init : 1 mu s
[OGL LOG][Proc: 0]global_index_init : 0 mu s
[OGL LOG][Proc: 0]global_index_init : 0 mu s
[OGL LOG][Proc: 0]update_host_matrix_data : 13542 mu s
[OGL LOG][Proc: 0]gather_initGuess : 472 mu s
[OGL LOG][Proc: 0]gather_RHS : 668 mu s
[OGL LOG][Proc: 0]gather_global_matrix : 0 mu s
[OGL LOG][Proc: 0]generate_solver : 2 mu s
[OGL LOG][Proc: 0]solve : 410825 mu s
nonehipGKOCG:  Solving for p, Initial residual = 1, Final residual = 5.82685e-05, No Iterations 776
linear solve p 595621
time step continuity errors : sum local = 9.61731e-10, global = 1.63827e-23, cumulative = -5.16484e-23
[OGL LOG][Proc: 0]global_index_init : 9 mu s
[OGL LOG][Proc: 0]global_index_init : 0 mu s
[OGL LOG][Proc: 0]global_index_init : 0 mu s
[OGL LOG][Proc: 0]global_index_init : 1 mu s
[OGL LOG][Proc: 0]update_host_matrix_data : 13789 mu s
[OGL LOG][Proc: 0]gather_initGuess : 424 mu s
[OGL LOG][Proc: 0]gather_RHS : 635 mu s
[OGL LOG][Proc: 0]gather_global_matrix : 0 mu s
[OGL LOG][Proc: 0]generate_solver : 3 mu s
[OGL LOG][Proc: 0]solve : 412868 mu s
nonehipGKOCG:  Solving for p, Initial residual = 1, Final residual = 5.38661e-05, No Iterations 776
linear solve p 598492
time step continuity errors : sum local = 5.86397e-10, global = 7.52463e-22, cumulative = 7.00815e-22
ExecutionTime = 11.18 s  ClockTime = 10 s

Time = 0.0003

Courant Number mean: 0.00317979 max: 0.0721774
DILUPBiCGStab:  Solving for Ux, Initial residual = 0.0963257, Final residual = 9.75879e-07, No Iterations 5
DILUPBiCGStab:  Solving for Uy, Initial residual = 0.140691, Final residual = 2.69379e-07, No Iterations 5
DILUPBiCGStab:  Solving for Uz, Initial residual = 0.205557, Final residual = 5.91724e-07, No Iterations 5
linear solve U 484580
[OGL LOG][Proc: 0]global_index_init : 9 mu s
[OGL LOG][Proc: 0]global_index_init : 1 mu s
[OGL LOG][Proc: 0]global_index_init : 0 mu s
[OGL LOG][Proc: 0]global_index_init : 0 mu s
[OGL LOG][Proc: 0]update_host_matrix_data : 13724 mu s
[OGL LOG][Proc: 0]gather_initGuess : 437 mu s
[OGL LOG][Proc: 0]gather_RHS : 655 mu s
[OGL LOG][Proc: 0]gather_global_matrix : 0 mu s
[OGL LOG][Proc: 0]generate_solver : 1 mu s
[OGL LOG][Proc: 0]solve : 417173 mu s
nonehipGKOCG:  Solving for p, Initial residual = 1, Final residual = 3.38106e-05, No Iterations 776
linear solve p 605513
time step continuity errors : sum local = 4.28405e-10, global = -6.71841e-22, cumulative = 2.89743e-23
[OGL LOG][Proc: 0]global_index_init : 9 mu s
[OGL LOG][Proc: 0]global_index_init : 0 mu s
[OGL LOG][Proc: 0]global_index_init : 0 mu s
[OGL LOG][Proc: 0]global_index_init : 1 mu s
[OGL LOG][Proc: 0]update_host_matrix_data : 13583 mu s
[OGL LOG][Proc: 0]gather_initGuess : 563 mu s
[OGL LOG][Proc: 0]gather_RHS : 649 mu s
[OGL LOG][Proc: 0]gather_global_matrix : 0 mu s
[OGL LOG][Proc: 0]generate_solver : 2 mu s
[OGL LOG][Proc: 0]solve : 415504 mu s
nonehipGKOCG:  Solving for p, Initial residual = 1, Final residual = 4.17972e-05, No Iterations 776
linear solve p 601439
time step continuity errors : sum local = 4.67872e-10, global = -2.3587e-22, cumulative = -2.06896e-22
ExecutionTime = 13.9 s  ClockTime = 12 s

Time = 0.0004

Courant Number mean: 0.00397985 max: 0.0793325
DILUPBiCGStab:  Solving for Ux, Initial residual = 0.059365, Final residual = 3.19664e-07, No Iterations 5
DILUPBiCGStab:  Solving for Uy, Initial residual = 0.0868086, Final residual = 1.49991e-07, No Iterations 5
DILUPBiCGStab:  Solving for Uz, Initial residual = 0.127219, Final residual = 2.76921e-07, No Iterations 5
linear solve U 483979
[OGL LOG][Proc: 0]global_index_init : 9 mu s
[OGL LOG][Proc: 0]global_index_init : 0 mu s
[OGL LOG][Proc: 0]global_index_init : 0 mu s
[OGL LOG][Proc: 0]global_index_init : 1 mu s
[OGL LOG][Proc: 0]update_host_matrix_data : 13441 mu s
[OGL LOG][Proc: 0]gather_initGuess : 450 mu s
[OGL LOG][Proc: 0]gather_RHS : 668 mu s
[OGL LOG][Proc: 0]gather_global_matrix : 0 mu s
[OGL LOG][Proc: 0]generate_solver : 3 mu s
[OGL LOG][Proc: 0]solve : 412054 mu s
nonehipGKOCG:  Solving for p, Initial residual = 1, Final residual = 4.63681e-05, No Iterations 776
linear solve p 599620
time step continuity errors : sum local = 5.55641e-10, global = -7.80663e-22, cumulative = -9.87559e-22
[OGL LOG][Proc: 0]global_index_init : 12 mu s
[OGL LOG][Proc: 0]global_index_init : 0 mu s
[OGL LOG][Proc: 0]global_index_init : 0 mu s
[OGL LOG][Proc: 0]global_index_init : 1 mu s
[OGL LOG][Proc: 0]update_host_matrix_data : 14780 mu s
[OGL LOG][Proc: 0]gather_initGuess : 431 mu s
[OGL LOG][Proc: 0]gather_RHS : 739 mu s
[OGL LOG][Proc: 0]gather_global_matrix : 0 mu s
[OGL LOG][Proc: 0]generate_solver : 2 mu s
[OGL LOG][Proc: 0]solve : 412174 mu s
nonehipGKOCG:  Solving for p, Initial residual = 1, Final residual = 3.95492e-05, No Iterations 776
linear solve p 600015
time step continuity errors : sum local = 4.57065e-10, global = -7.64025e-22, cumulative = -1.75158e-21
ExecutionTime = 16.59 s  ClockTime = 14 s

Time = 0.0005

Courant Number mean: 0.0046013 max: 0.0828851
DILUPBiCGStab:  Solving for Ux, Initial residual = 0.04286, Final residual = 2.45212e-07, No Iterations 5
DILUPBiCGStab:  Solving for Uy, Initial residual = 0.0618651, Final residual = 9.2358e-08, No Iterations 5
DILUPBiCGStab:  Solving for Uz, Initial residual = 0.0973549, Final residual = 1.86148e-07, No Iterations 5
linear solve U 484377
[OGL LOG][Proc: 0]global_index_init : 9 mu s
[OGL LOG][Proc: 0]global_index_init : 1 mu s
[OGL LOG][Proc: 0]global_index_init : 0 mu s
[OGL LOG][Proc: 0]global_index_init : 0 mu s
[OGL LOG][Proc: 0]update_host_matrix_data : 13072 mu s
[OGL LOG][Proc: 0]gather_initGuess : 486 mu s
[OGL LOG][Proc: 0]gather_RHS : 717 mu s
[OGL LOG][Proc: 0]gather_global_matrix : 0 mu s
[OGL LOG][Proc: 0]generate_solver : 2 mu s
[OGL LOG][Proc: 0]solve : 420645 mu s
nonehipGKOCG:  Solving for p, Initial residual = 1, Final residual = 5.21177e-05, No Iterations 776
linear solve p 606773
time step continuity errors : sum local = 6.23191e-10, global = -1.44564e-22, cumulative = -1.89615e-21
[OGL LOG][Proc: 0]global_index_init : 9 mu s
[OGL LOG][Proc: 0]global_index_init : 0 mu s
[OGL LOG][Proc: 0]global_index_init : 0 mu s
[OGL LOG][Proc: 0]global_index_init : 0 mu s
[OGL LOG][Proc: 0]update_host_matrix_data : 13735 mu s
[OGL LOG][Proc: 0]gather_initGuess : 407 mu s
[OGL LOG][Proc: 0]gather_RHS : 625 mu s
[OGL LOG][Proc: 0]gather_global_matrix : 0 mu s
[OGL LOG][Proc: 0]generate_solver : 3 mu s
[OGL LOG][Proc: 0]solve : 422807 mu s
nonehipGKOCG:  Solving for p, Initial residual = 1, Final residual = 4.10269e-05, No Iterations 776
linear solve p 613573
time step continuity errors : sum local = 4.81146e-10, global = 2.12964e-22, cumulative = -1.68318e-21
ExecutionTime = 19.33 s  ClockTime = 16 s

End

Finalising parallel run
================================================================================
hash: 782fcb1d585168eafdbd0c44babda32f
/*---------------------------------------------------------------------------*\
| =========                 |                                                 |
| \\      /  F ield         | OpenFOAM: The Open Source CFD Toolbox           |
|  \\    /   O peration     | Version:  v2106                                 |
|   \\  /    A nd           | Website:  www.openfoam.com                      |
|    \\/     M anipulation  |                                                 |
\*---------------------------------------------------------------------------*/
Build  : f815a12bba-20210902 OPENFOAM=2106
Arch   : "LSB;label=32;scalar=64"
Exec   : icoFoam -parallel
Date   : Mar 08 2022
Time   : 16:42:44
Host   : nla-gpu2.ianm.kit.edu
PID    : 158843
I/O    : uncollated
Case   : /home/greole/data/code/ogl_labbook/lidDrivenCavity/scaling/Variation_mesh/100/Variation_matrix_solver/CG_NoPrecond_HIP/Variation_mpiRank_gko/3/base
nProcs : 3
Hosts  :
(
    (nla-gpu2.ianm.kit.edu 3)
)
Pstream initialized with:
    floatTransfer      : 0
    nProcsSimpleSum    : 0
    commsType          : nonBlocking
    polling iterations : 0
trapFpe: Floating point exception trapping enabled (FOAM_SIGFPE).
fileModificationChecking : Monitoring run-time modified files using timeStampMaster (fileModificationSkew 5, maxFileModificationPolls 20)
allowSystemOperations : Allowing user-supplied system call operations

// * * * * * * * * * * * * * * * * * * * * * * * * * * * * * * * * * * * * * //
Create time

Create mesh for time = 0


PISO: Operating solver in PISO mode

Reading transportProperties

Reading field p

Reading field U

Reading/calculating face flux field phi


Starting time loop

Time = 0.0001

Courant Number mean: 0 max: 0
DILUPBiCGStab:  Solving for Ux, Initial residual = 1, Final residual = 4.02927e-06, No Iterations 5
DILUPBiCGStab:  Solving for Uy:  solution singularity
DILUPBiCGStab:  Solving for Uz:  solution singularity
linear solve U 152217
[OGL LOG][Proc: 0]global_index_init : 17940 mu s
[OGL LOG][Proc: 0]global_index_init : 4 mu s
[OGL LOG][Proc: 0]global_index_init : 1 mu s
[OGL LOG][Proc: 0]global_index_init : 1 mu s
[OGL LOG][Proc: 0]init_host_sparsity_pattern : 2025070 mu s
[OGL LOG][Proc: 0]update_host_matrix_data : 9943 mu s
[OGL LOG][Proc: 0]convert_coo_to_csr : 52459 mu s
[OGL LOG][Proc: 0]gather_initGuess : 641 mu s
[OGL LOG][Proc: 0]gather_RHS : 1182 mu s
[OGL LOG][Proc: 0]gather_global_matrix : 0 mu s
[OGL LOG][Proc: 0]generate_solver : 19 mu s
[OGL LOG][Proc: 0]solve : 503521 mu s
nonehipGKOCG:  Solving for p, Initial residual = 1, Final residual = 9.21037e-05, No Iterations 779
linear solve p 3374343
time step continuity errors : sum local = 1.62718e-09, global = -6.72466e-22, cumulative = -6.72466e-22
[OGL LOG][Proc: 0]global_index_init : 20 mu s
[OGL LOG][Proc: 0]global_index_init : 1 mu s
[OGL LOG][Proc: 0]global_index_init : 1 mu s
[OGL LOG][Proc: 0]global_index_init : 1 mu s
[OGL LOG][Proc: 0]update_host_matrix_data : 6488 mu s
[OGL LOG][Proc: 0]gather_initGuess : 1174 mu s
[OGL LOG][Proc: 0]gather_RHS : 566 mu s
[OGL LOG][Proc: 0]gather_global_matrix : 0 mu s
[OGL LOG][Proc: 0]generate_solver : 3 mu s
[OGL LOG][Proc: 0]solve : 314555 mu s
nonehipGKOCG:  Solving for p, Initial residual = 1, Final residual = 3.43335e-05, No Iterations 776
linear solve p 500538
time step continuity errors : sum local = 3.31032e-10, global = -7.17164e-22, cumulative = -1.38963e-21
ExecutionTime = 6.5 s  ClockTime = 6 s

Time = 0.0002

Courant Number mean: 0.00201333 max: 0.054037
DILUPBiCGStab:  Solving for Ux, Initial residual = 0.216464, Final residual = 2.96627e-06, No Iterations 5
DILUPBiCGStab:  Solving for Uy, Initial residual = 0.309937, Final residual = 2.50398e-06, No Iterations 5
DILUPBiCGStab:  Solving for Uz, Initial residual = 0.981406, Final residual = 6.00508e-06, No Iterations 5
linear solve U 281336
[OGL LOG][Proc: 0]global_index_init : 15 mu s
[OGL LOG][Proc: 0]global_index_init : 1 mu s
[OGL LOG][Proc: 0]global_index_init : 1 mu s
[OGL LOG][Proc: 0]global_index_init : 1 mu s
[OGL LOG][Proc: 0]update_host_matrix_data : 5878 mu s
[OGL LOG][Proc: 0]gather_initGuess : 1228 mu s
[OGL LOG][Proc: 0]gather_RHS : 614 mu s
[OGL LOG][Proc: 0]gather_global_matrix : 0 mu s
[OGL LOG][Proc: 0]generate_solver : 2 mu s
[OGL LOG][Proc: 0]solve : 346453 mu s
nonehipGKOCG:  Solving for p, Initial residual = 1, Final residual = 2.34842e-05, No Iterations 776
linear solve p 531892
time step continuity errors : sum local = 3.87579e-10, global = 4.15349e-22, cumulative = -9.7428e-22
[OGL LOG][Proc: 0]global_index_init : 10 mu s
[OGL LOG][Proc: 0]global_index_init : 1 mu s
[OGL LOG][Proc: 0]global_index_init : 1 mu s
[OGL LOG][Proc: 0]global_index_init : 1 mu s
[OGL LOG][Proc: 0]update_host_matrix_data : 5852 mu s
[OGL LOG][Proc: 0]gather_initGuess : 677 mu s
[OGL LOG][Proc: 0]gather_RHS : 581 mu s
[OGL LOG][Proc: 0]gather_global_matrix : 0 mu s
[OGL LOG][Proc: 0]generate_solver : 2 mu s
[OGL LOG][Proc: 0]solve : 353087 mu s
nonehipGKOCG:  Solving for p, Initial residual = 1, Final residual = 2.01121e-05, No Iterations 776
linear solve p 547001
time step continuity errors : sum local = 2.18939e-10, global = -1.97041e-22, cumulative = -1.17132e-21
ExecutionTime = 8.56 s  ClockTime = 7 s

Time = 0.0003

Courant Number mean: 0.00317979 max: 0.0721774
DILUPBiCGStab:  Solving for Ux, Initial residual = 0.0963256, Final residual = 1.17171e-06, No Iterations 5
DILUPBiCGStab:  Solving for Uy, Initial residual = 0.140691, Final residual = 9.91814e-07, No Iterations 5
DILUPBiCGStab:  Solving for Uz, Initial residual = 0.205601, Final residual = 1.30878e-06, No Iterations 5
linear solve U 292676
[OGL LOG][Proc: 0]global_index_init : 10 mu s
[OGL LOG][Proc: 0]global_index_init : 1 mu s
[OGL LOG][Proc: 0]global_index_init : 1 mu s
[OGL LOG][Proc: 0]global_index_init : 1 mu s
[OGL LOG][Proc: 0]update_host_matrix_data : 6527 mu s
[OGL LOG][Proc: 0]gather_initGuess : 1328 mu s
[OGL LOG][Proc: 0]gather_RHS : 594 mu s
[OGL LOG][Proc: 0]gather_global_matrix : 0 mu s
[OGL LOG][Proc: 0]generate_solver : 2 mu s
[OGL LOG][Proc: 0]solve : 357381 mu s
nonehipGKOCG:  Solving for p, Initial residual = 1, Final residual = 7.5616e-05, No Iterations 745
linear solve p 542098
time step continuity errors : sum local = 9.58041e-10, global = 3.67744e-22, cumulative = -8.03578e-22
[OGL LOG][Proc: 0]global_index_init : 11 mu s
[OGL LOG][Proc: 0]global_index_init : 2 mu s
[OGL LOG][Proc: 0]global_index_init : 1 mu s
[OGL LOG][Proc: 0]global_index_init : 1 mu s
[OGL LOG][Proc: 0]update_host_matrix_data : 5845 mu s
[OGL LOG][Proc: 0]gather_initGuess : 588 mu s
[OGL LOG][Proc: 0]gather_RHS : 574 mu s
[OGL LOG][Proc: 0]gather_global_matrix : 0 mu s
[OGL LOG][Proc: 0]generate_solver : 3 mu s
[OGL LOG][Proc: 0]solve : 357434 mu s
nonehipGKOCG:  Solving for p, Initial residual = 1, Final residual = 6.29344e-05, No Iterations 755
linear solve p 551477
time step continuity errors : sum local = 7.04451e-10, global = -2.59544e-23, cumulative = -8.29532e-22
ExecutionTime = 10.63 s  ClockTime = 9 s

Time = 0.0004

Courant Number mean: 0.00397985 max: 0.0793326
DILUPBiCGStab:  Solving for Ux, Initial residual = 0.059365, Final residual = 4.31016e-07, No Iterations 5
DILUPBiCGStab:  Solving for Uy, Initial residual = 0.0868086, Final residual = 4.91936e-07, No Iterations 5
DILUPBiCGStab:  Solving for Uz, Initial residual = 0.127141, Final residual = 6.76004e-07, No Iterations 5
linear solve U 284744
[OGL LOG][Proc: 0]global_index_init : 13 mu s
[OGL LOG][Proc: 0]global_index_init : 1 mu s
[OGL LOG][Proc: 0]global_index_init : 1 mu s
[OGL LOG][Proc: 0]global_index_init : 1 mu s
[OGL LOG][Proc: 0]update_host_matrix_data : 5838 mu s
[OGL LOG][Proc: 0]gather_initGuess : 1129 mu s
[OGL LOG][Proc: 0]gather_RHS : 579 mu s
[OGL LOG][Proc: 0]gather_global_matrix : 0 mu s
[OGL LOG][Proc: 0]generate_solver : 2 mu s
[OGL LOG][Proc: 0]solve : 337763 mu s
nonehipGKOCG:  Solving for p, Initial residual = 1, Final residual = 9.9317e-05, No Iterations 721
linear solve p 522542
time step continuity errors : sum local = 1.19065e-09, global = -9.16892e-22, cumulative = -1.74642e-21
[OGL LOG][Proc: 0]global_index_init : 8 mu s
[OGL LOG][Proc: 0]global_index_init : 1 mu s
[OGL LOG][Proc: 0]global_index_init : 1 mu s
[OGL LOG][Proc: 0]global_index_init : 1 mu s
[OGL LOG][Proc: 0]update_host_matrix_data : 5823 mu s
[OGL LOG][Proc: 0]gather_initGuess : 559 mu s
[OGL LOG][Proc: 0]gather_RHS : 581 mu s
[OGL LOG][Proc: 0]gather_global_matrix : 0 mu s
[OGL LOG][Proc: 0]generate_solver : 2 mu s
[OGL LOG][Proc: 0]solve : 358645 mu s
nonehipGKOCG:  Solving for p, Initial residual = 1, Final residual = 5.23721e-05, No Iterations 757
linear solve p 541229
time step continuity errors : sum local = 6.05238e-10, global = -1.29524e-22, cumulative = -1.87595e-21
ExecutionTime = 12.65 s  ClockTime = 10 s

Time = 0.0005

Courant Number mean: 0.00460129 max: 0.0828851
DILUPBiCGStab:  Solving for Ux, Initial residual = 0.0428599, Final residual = 3.281e-07, No Iterations 5
DILUPBiCGStab:  Solving for Uy, Initial residual = 0.0618651, Final residual = 2.69233e-07, No Iterations 5
DILUPBiCGStab:  Solving for Uz, Initial residual = 0.0974998, Final residual = 4.92873e-07, No Iterations 5
linear solve U 279548
[OGL LOG][Proc: 0]global_index_init : 8 mu s
[OGL LOG][Proc: 0]global_index_init : 1 mu s
[OGL LOG][Proc: 0]global_index_init : 1 mu s
[OGL LOG][Proc: 0]global_index_init : 1 mu s
[OGL LOG][Proc: 0]update_host_matrix_data : 5851 mu s
[OGL LOG][Proc: 0]gather_initGuess : 513 mu s
[OGL LOG][Proc: 0]gather_RHS : 594 mu s
[OGL LOG][Proc: 0]gather_global_matrix : 6 mu s
[OGL LOG][Proc: 0]generate_solver : 5 mu s
[OGL LOG][Proc: 0]solve : 361019 mu s
nonehipGKOCG:  Solving for p, Initial residual = 1, Final residual = 7.31575e-05, No Iterations 751
linear solve p 546153
time step continuity errors : sum local = 8.74791e-10, global = 1.78358e-22, cumulative = -1.69759e-21
[OGL LOG][Proc: 0]global_index_init : 7 mu s
[OGL LOG][Proc: 0]global_index_init : 1 mu s
[OGL LOG][Proc: 0]global_index_init : 1 mu s
[OGL LOG][Proc: 0]global_index_init : 1 mu s
[OGL LOG][Proc: 0]update_host_matrix_data : 6262 mu s
[OGL LOG][Proc: 0]gather_initGuess : 1093 mu s
[OGL LOG][Proc: 0]gather_RHS : 555 mu s
[OGL LOG][Proc: 0]gather_global_matrix : 0 mu s
[OGL LOG][Proc: 0]generate_solver : 3 mu s
[OGL LOG][Proc: 0]solve : 350758 mu s
nonehipGKOCG:  Solving for p, Initial residual = 1, Final residual = 6.78884e-05, No Iterations 751
linear solve p 537158
time step continuity errors : sum local = 7.9614e-10, global = -1.39464e-21, cumulative = -3.09223e-21
ExecutionTime = 14.7 s  ClockTime = 12 s

End

Finalising parallel run
================================================================================
hash: a482f80dc5457a25c37647bf58ea2aef
/*---------------------------------------------------------------------------*\
| =========                 |                                                 |
| \\      /  F ield         | OpenFOAM: The Open Source CFD Toolbox           |
|  \\    /   O peration     | Version:  v2106                                 |
|   \\  /    A nd           | Website:  www.openfoam.com                      |
|    \\/     M anipulation  |                                                 |
\*---------------------------------------------------------------------------*/
Build  : f815a12bba-20210902 OPENFOAM=2106
Arch   : "LSB;label=32;scalar=64"
Exec   : icoFoam -parallel
Date   : Mar 08 2022
Time   : 16:42:56
Host   : nla-gpu2.ianm.kit.edu
PID    : 158865
I/O    : uncollated
Case   : /home/greole/data/code/ogl_labbook/lidDrivenCavity/scaling/Variation_mesh/100/Variation_matrix_solver/CG_NoPrecond_HIP/Variation_mpiRank_gko/6/base
nProcs : 6
Hosts  :
(
    (nla-gpu2.ianm.kit.edu 6)
)
Pstream initialized with:
    floatTransfer      : 0
    nProcsSimpleSum    : 0
    commsType          : nonBlocking
    polling iterations : 0
trapFpe: Floating point exception trapping enabled (FOAM_SIGFPE).
fileModificationChecking : Monitoring run-time modified files using timeStampMaster (fileModificationSkew 5, maxFileModificationPolls 20)
allowSystemOperations : Allowing user-supplied system call operations

// * * * * * * * * * * * * * * * * * * * * * * * * * * * * * * * * * * * * * //
Create time

Create mesh for time = 0


PISO: Operating solver in PISO mode

Reading transportProperties

Reading field p

Reading field U

Reading/calculating face flux field phi


Starting time loop

Time = 0.0001

Courant Number mean: 0 max: 0
DILUPBiCGStab:  Solving for Ux, Initial residual = 1, Final residual = 4.78178e-06, No Iterations 5
DILUPBiCGStab:  Solving for Uy:  solution singularity
DILUPBiCGStab:  Solving for Uz:  solution singularity
linear solve U 74480
[OGL LOG][Proc: 0]global_index_init : 9013 mu s
[OGL LOG][Proc: 0]global_index_init : 5 mu s
[OGL LOG][Proc: 0]global_index_init : 3 mu s
[OGL LOG][Proc: 0]global_index_init : 2 mu s
[OGL LOG][Proc: 0]init_host_sparsity_pattern : 835630 mu s
[OGL LOG][Proc: 0]update_host_matrix_data : 6516 mu s
[OGL LOG][Proc: 0]convert_coo_to_csr : 65048 mu s
[OGL LOG][Proc: 0]gather_initGuess : 283 mu s
[OGL LOG][Proc: 0]gather_RHS : 983 mu s
[OGL LOG][Proc: 0]gather_global_matrix : 0 mu s
[OGL LOG][Proc: 0]generate_solver : 22 mu s
[OGL LOG][Proc: 0]solve : 749521 mu s
nonehipGKOCG:  Solving for p, Initial residual = 1, Final residual = 9.75888e-05, No Iterations 771
linear solve p 2787286
time step continuity errors : sum local = 1.72417e-09, global = -8.0046e-22, cumulative = -8.0046e-22
[OGL LOG][Proc: 0]global_index_init : 56 mu s
[OGL LOG][Proc: 0]global_index_init : 2 mu s
[OGL LOG][Proc: 0]global_index_init : 2 mu s
[OGL LOG][Proc: 0]global_index_init : 2 mu s
[OGL LOG][Proc: 0]update_host_matrix_data : 3219 mu s
[OGL LOG][Proc: 0]gather_initGuess : 264 mu s
[OGL LOG][Proc: 0]gather_RHS : 353 mu s
[OGL LOG][Proc: 0]gather_global_matrix : 0 mu s
[OGL LOG][Proc: 0]generate_solver : 3 mu s
[OGL LOG][Proc: 0]solve : 454531 mu s
nonehipGKOCG:  Solving for p, Initial residual = 1, Final residual = 8.73907e-05, No Iterations 751
linear solve p 550352
time step continuity errors : sum local = 8.42663e-10, global = -1.91372e-22, cumulative = -9.91832e-22
ExecutionTime = 4.84 s  ClockTime = 5 s

Time = 0.0002

Courant Number mean: 0.00201332 max: 0.0540371
DILUPBiCGStab:  Solving for Ux, Initial residual = 0.216464, Final residual = 3.91106e-06, No Iterations 5
DILUPBiCGStab:  Solving for Uy, Initial residual = 0.309938, Final residual = 2.79487e-06, No Iterations 5
DILUPBiCGStab:  Solving for Uz, Initial residual = 0.981354, Final residual = 6.96048e-06, No Iterations 5
linear solve U 144017
[OGL LOG][Proc: 0]global_index_init : 17 mu s
[OGL LOG][Proc: 0]global_index_init : 2 mu s
[OGL LOG][Proc: 0]global_index_init : 3 mu s
[OGL LOG][Proc: 0]global_index_init : 2 mu s
[OGL LOG][Proc: 0]update_host_matrix_data : 2707 mu s
[OGL LOG][Proc: 0]gather_initGuess : 649 mu s
[OGL LOG][Proc: 0]gather_RHS : 384 mu s
[OGL LOG][Proc: 0]gather_global_matrix : 0 mu s
[OGL LOG][Proc: 0]generate_solver : 2 mu s
[OGL LOG][Proc: 0]solve : 447393 mu s
nonehipGKOCG:  Solving for p, Initial residual = 1, Final residual = 6.16547e-05, No Iterations 751
linear solve p 534392
time step continuity errors : sum local = 1.0177e-09, global = -1.24946e-22, cumulative = -1.11678e-21
[OGL LOG][Proc: 0]global_index_init : 21 mu s
[OGL LOG][Proc: 0]global_index_init : 3 mu s
[OGL LOG][Proc: 0]global_index_init : 2 mu s
[OGL LOG][Proc: 0]global_index_init : 2 mu s
[OGL LOG][Proc: 0]update_host_matrix_data : 3143 mu s
[OGL LOG][Proc: 0]gather_initGuess : 336 mu s
[OGL LOG][Proc: 0]gather_RHS : 407 mu s
[OGL LOG][Proc: 0]gather_global_matrix : 0 mu s
[OGL LOG][Proc: 0]generate_solver : 2 mu s
[OGL LOG][Proc: 0]solve : 447067 mu s
nonehipGKOCG:  Solving for p, Initial residual = 1, Final residual = 5.4992e-05, No Iterations 751
linear solve p 533774
time step continuity errors : sum local = 5.98674e-10, global = -2.11449e-22, cumulative = -1.32823e-21
ExecutionTime = 6.56 s  ClockTime = 6 s

Time = 0.0003

Courant Number mean: 0.00317979 max: 0.0721775
DILUPBiCGStab:  Solving for Ux, Initial residual = 0.0963257, Final residual = 1.51863e-06, No Iterations 5
DILUPBiCGStab:  Solving for Uy, Initial residual = 0.140692, Final residual = 1.01562e-06, No Iterations 5
DILUPBiCGStab:  Solving for Uz, Initial residual = 0.205751, Final residual = 1.54274e-06, No Iterations 5
linear solve U 143722
[OGL LOG][Proc: 0]global_index_init : 27 mu s
[OGL LOG][Proc: 0]global_index_init : 2 mu s
[OGL LOG][Proc: 0]global_index_init : 2 mu s
[OGL LOG][Proc: 0]global_index_init : 2 mu s
[OGL LOG][Proc: 0]update_host_matrix_data : 2751 mu s
[OGL LOG][Proc: 0]gather_initGuess : 335 mu s
[OGL LOG][Proc: 0]gather_RHS : 444 mu s
[OGL LOG][Proc: 0]gather_global_matrix : 0 mu s
[OGL LOG][Proc: 0]generate_solver : 2 mu s
[OGL LOG][Proc: 0]solve : 440655 mu s
nonehipGKOCG:  Solving for p, Initial residual = 1, Final residual = 5.35236e-05, No Iterations 751
linear solve p 525693
time step continuity errors : sum local = 6.78175e-10, global = -6.77422e-22, cumulative = -2.00565e-21
[OGL LOG][Proc: 0]global_index_init : 13 mu s
[OGL LOG][Proc: 0]global_index_init : 3 mu s
[OGL LOG][Proc: 0]global_index_init : 2 mu s
[OGL LOG][Proc: 0]global_index_init : 2 mu s
[OGL LOG][Proc: 0]update_host_matrix_data : 2708 mu s
[OGL LOG][Proc: 0]gather_initGuess : 344 mu s
[OGL LOG][Proc: 0]gather_RHS : 397 mu s
[OGL LOG][Proc: 0]gather_global_matrix : 0 mu s
[OGL LOG][Proc: 0]generate_solver : 3 mu s
[OGL LOG][Proc: 0]solve : 438698 mu s
nonehipGKOCG:  Solving for p, Initial residual = 1, Final residual = 4.7661e-05, No Iterations 751
linear solve p 526976
time step continuity errors : sum local = 5.33516e-10, global = 5.88354e-22, cumulative = -1.41729e-21
ExecutionTime = 8.27 s  ClockTime = 7 s

Time = 0.0004

Courant Number mean: 0.00397984 max: 0.0793326
DILUPBiCGStab:  Solving for Ux, Initial residual = 0.059365, Final residual = 5.55957e-07, No Iterations 5
DILUPBiCGStab:  Solving for Uy, Initial residual = 0.0868089, Final residual = 4.83275e-07, No Iterations 5
DILUPBiCGStab:  Solving for Uz, Initial residual = 0.127376, Final residual = 8.11449e-07, No Iterations 5
linear solve U 156391
[OGL LOG][Proc: 0]global_index_init : 26 mu s
[OGL LOG][Proc: 0]global_index_init : 2 mu s
[OGL LOG][Proc: 0]global_index_init : 2 mu s
[OGL LOG][Proc: 0]global_index_init : 2 mu s
[OGL LOG][Proc: 0]update_host_matrix_data : 3213 mu s
[OGL LOG][Proc: 0]gather_initGuess : 286 mu s
[OGL LOG][Proc: 0]gather_RHS : 385 mu s
[OGL LOG][Proc: 0]gather_global_matrix : 0 mu s
[OGL LOG][Proc: 0]generate_solver : 3 mu s
[OGL LOG][Proc: 0]solve : 436723 mu s
nonehipGKOCG:  Solving for p, Initial residual = 1, Final residual = 5.91857e-05, No Iterations 721
linear solve p 526603
time step continuity errors : sum local = 7.0936e-10, global = -1.36005e-22, cumulative = -1.5533e-21
[OGL LOG][Proc: 0]global_index_init : 23 mu s
[OGL LOG][Proc: 0]global_index_init : 2 mu s
[OGL LOG][Proc: 0]global_index_init : 3 mu s
[OGL LOG][Proc: 0]global_index_init : 2 mu s
[OGL LOG][Proc: 0]update_host_matrix_data : 2719 mu s
[OGL LOG][Proc: 0]gather_initGuess : 386 mu s
[OGL LOG][Proc: 0]gather_RHS : 407 mu s
[OGL LOG][Proc: 0]gather_global_matrix : 0 mu s
[OGL LOG][Proc: 0]generate_solver : 3 mu s
[OGL LOG][Proc: 0]solve : 470899 mu s
nonehipGKOCG:  Solving for p, Initial residual = 1, Final residual = 3.82521e-05, No Iterations 757
linear solve p 556402
time step continuity errors : sum local = 4.42053e-10, global = -5.72889e-22, cumulative = -2.12619e-21
ExecutionTime = 10.08 s  ClockTime = 9 s

Time = 0.0005

Courant Number mean: 0.00460129 max: 0.0828851
DILUPBiCGStab:  Solving for Ux, Initial residual = 0.0428599, Final residual = 3.85137e-07, No Iterations 5
DILUPBiCGStab:  Solving for Uy, Initial residual = 0.0618654, Final residual = 2.80675e-07, No Iterations 5
DILUPBiCGStab:  Solving for Uz, Initial residual = 0.0972656, Final residual = 5.8305e-07, No Iterations 5
linear solve U 141089
[OGL LOG][Proc: 0]global_index_init : 14 mu s
[OGL LOG][Proc: 0]global_index_init : 3 mu s
[OGL LOG][Proc: 0]global_index_init : 3 mu s
[OGL LOG][Proc: 0]global_index_init : 3 mu s
[OGL LOG][Proc: 0]update_host_matrix_data : 3215 mu s
[OGL LOG][Proc: 0]gather_initGuess : 304 mu s
[OGL LOG][Proc: 0]gather_RHS : 389 mu s
[OGL LOG][Proc: 0]gather_global_matrix : 0 mu s
[OGL LOG][Proc: 0]generate_solver : 2 mu s
[OGL LOG][Proc: 0]solve : 436453 mu s
nonehipGKOCG:  Solving for p, Initial residual = 1, Final residual = 9.95621e-05, No Iterations 721
linear solve p 522446
time step continuity errors : sum local = 1.19081e-09, global = 4.46737e-22, cumulative = -1.67945e-21
[OGL LOG][Proc: 0]global_index_init : 26 mu s
[OGL LOG][Proc: 0]global_index_init : 2 mu s
[OGL LOG][Proc: 0]global_index_init : 3 mu s
[OGL LOG][Proc: 0]global_index_init : 3 mu s
[OGL LOG][Proc: 0]update_host_matrix_data : 2748 mu s
[OGL LOG][Proc: 0]gather_initGuess : 320 mu s
[OGL LOG][Proc: 0]gather_RHS : 384 mu s
[OGL LOG][Proc: 0]gather_global_matrix : 0 mu s
[OGL LOG][Proc: 0]generate_solver : 3 mu s
[OGL LOG][Proc: 0]solve : 442762 mu s
nonehipGKOCG:  Solving for p, Initial residual = 1, Final residual = 3.89735e-05, No Iterations 757
linear solve p 528256
time step continuity errors : sum local = 4.57049e-10, global = 3.72622e-22, cumulative = -1.30683e-21
ExecutionTime = 11.82 s  ClockTime = 10 s

End

Finalising parallel run
================================================================================
hash: f666ec575a50aeaca92bc7f9bb29e64d
/*---------------------------------------------------------------------------*\
| =========                 |                                                 |
| \\      /  F ield         | OpenFOAM: The Open Source CFD Toolbox           |
|  \\    /   O peration     | Version:  v2106                                 |
|   \\  /    A nd           | Website:  www.openfoam.com                      |
|    \\/     M anipulation  |                                                 |
\*---------------------------------------------------------------------------*/
Build  : f815a12bba-20210902 OPENFOAM=2106
Arch   : "LSB;label=32;scalar=64"
Exec   : icoFoam -parallel
Date   : Mar 08 2022
Time   : 16:46:09
Host   : nla-gpu2.ianm.kit.edu
PID    : 159469
I/O    : uncollated
Case   : /home/greole/data/code/ogl_labbook/lidDrivenCavity/scaling/Variation_mesh/200/Variation_matrix_solver/CG_NoPrecond_HIP/Variation_mpiRank_gko/4/base
nProcs : 4
Hosts  :
(
    (nla-gpu2.ianm.kit.edu 4)
)
Pstream initialized with:
    floatTransfer      : 0
    nProcsSimpleSum    : 0
    commsType          : nonBlocking
    polling iterations : 0
trapFpe: Floating point exception trapping enabled (FOAM_SIGFPE).
fileModificationChecking : Monitoring run-time modified files using timeStampMaster (fileModificationSkew 5, maxFileModificationPolls 20)
allowSystemOperations : Allowing user-supplied system call operations

// * * * * * * * * * * * * * * * * * * * * * * * * * * * * * * * * * * * * * //
Create time

Create mesh for time = 0


PISO: Operating solver in PISO mode

Reading transportProperties

Reading field p

Reading field U

Reading/calculating face flux field phi


Starting time loop

Time = 5e-05

Courant Number mean: 0 max: 0
DILUPBiCGStab:  Solving for Ux, Initial residual = 1, Final residual = 0.00011584, No Iterations 5
DILUPBiCGStab:  Solving for Uy:  solution singularity
DILUPBiCGStab:  Solving for Uz:  solution singularity
linear solve U 1074766
[OGL LOG][Proc: 0]global_index_init : 12691 mu s
[OGL LOG][Proc: 0]global_index_init : 3 mu s
[OGL LOG][Proc: 0]global_index_init : 2 mu s
[OGL LOG][Proc: 0]global_index_init : 2 mu s
[OGL LOG][Proc: 0]init_host_sparsity_pattern : 43781469 mu s
[OGL LOG][Proc: 0]update_host_matrix_data : 57151 mu s
[OGL LOG][Proc: 0]convert_coo_to_csr : 461990 mu s
[OGL LOG][Proc: 0]gather_initGuess : 4114 mu s
[OGL LOG][Proc: 0]gather_RHS : 3620 mu s
[OGL LOG][Proc: 0]gather_global_matrix : 0 mu s
[OGL LOG][Proc: 0]generate_solver : 16 mu s
[OGL LOG][Proc: 0]solve : 2050260 mu s
nonehipGKOCG:  Solving for p, Initial residual = 1, Final residual = 9.77351e-05, No Iterations 1571
linear solve p 49555812
time step continuity errors : sum local = 6.46408e-10, global = 1.26152e-22, cumulative = 1.26152e-22
[OGL LOG][Proc: 0]global_index_init : 20 mu s
[OGL LOG][Proc: 0]global_index_init : 2 mu s
[OGL LOG][Proc: 0]global_index_init : 2 mu s
[OGL LOG][Proc: 0]global_index_init : 2 mu s
[OGL LOG][Proc: 0]update_host_matrix_data : 49402 mu s
[OGL LOG][Proc: 0]gather_initGuess : 4011 mu s
[OGL LOG][Proc: 0]gather_RHS : 2114 mu s
[OGL LOG][Proc: 0]gather_global_matrix : 0 mu s
[OGL LOG][Proc: 0]generate_solver : 3 mu s
[OGL LOG][Proc: 0]solve : 1630109 mu s
nonehipGKOCG:  Solving for p, Initial residual = 1, Final residual = 7.16072e-05, No Iterations 1489
linear solve p 2915856
time step continuity errors : sum local = 2.09914e-10, global = 3.06928e-23, cumulative = 1.56844e-22
ExecutionTime = 67.21 s  ClockTime = 65 s

Time = 0.0001

Courant Number mean: 0.00156135 max: 0.0657817
DILUPBiCGStab:  Solving for Ux, Initial residual = 0.189841, Final residual = 6.87166e-05, No Iterations 5
DILUPBiCGStab:  Solving for Uy, Initial residual = 0.330056, Final residual = 4.96878e-05, No Iterations 5
DILUPBiCGStab:  Solving for Uz, Initial residual = 0.992188, Final residual = 0.000183217, No Iterations 5
linear solve U 1954626
[OGL LOG][Proc: 0]global_index_init : 13 mu s
[OGL LOG][Proc: 0]global_index_init : 2 mu s
[OGL LOG][Proc: 0]global_index_init : 2 mu s
[OGL LOG][Proc: 0]global_index_init : 2 mu s
[OGL LOG][Proc: 0]update_host_matrix_data : 48645 mu s
[OGL LOG][Proc: 0]gather_initGuess : 2743 mu s
[OGL LOG][Proc: 0]gather_RHS : 1871 mu s
[OGL LOG][Proc: 0]gather_global_matrix : 0 mu s
[OGL LOG][Proc: 0]generate_solver : 2 mu s
[OGL LOG][Proc: 0]solve : 1623710 mu s
nonehipGKOCG:  Solving for p, Initial residual = 1, Final residual = 4.6076e-05, No Iterations 1476
linear solve p 2899491
time step continuity errors : sum local = 2.94031e-10, global = 3.64509e-22, cumulative = 5.21353e-22
[OGL LOG][Proc: 0]global_index_init : 13 mu s
[OGL LOG][Proc: 0]global_index_init : 2 mu s
[OGL LOG][Proc: 0]global_index_init : 1 mu s
[OGL LOG][Proc: 0]global_index_init : 2 mu s
[OGL LOG][Proc: 0]update_host_matrix_data : 44849 mu s
[OGL LOG][Proc: 0]gather_initGuess : 2632 mu s
[OGL LOG][Proc: 0]gather_RHS : 2523 mu s
[OGL LOG][Proc: 0]gather_global_matrix : 0 mu s
[OGL LOG][Proc: 0]generate_solver : 2 mu s
[OGL LOG][Proc: 0]solve : 1564202 mu s
nonehipGKOCG:  Solving for p, Initial residual = 1, Final residual = 8.91665e-05, No Iterations 1417
linear solve p 2844411
time step continuity errors : sum local = 2.86898e-10, global = 2.82621e-23, cumulative = 5.49615e-22
ExecutionTime = 78.75 s  ClockTime = 74 s

Time = 0.00015

Courant Number mean: 0.00241157 max: 0.0810521
DILUPBiCGStab:  Solving for Ux, Initial residual = 0.0803503, Final residual = 2.27224e-05, No Iterations 5
DILUPBiCGStab:  Solving for Uy, Initial residual = 0.137296, Final residual = 1.08272e-05, No Iterations 5
DILUPBiCGStab:  Solving for Uz, Initial residual = 0.0901028, Final residual = 2.78167e-05, No Iterations 5
linear solve U 1896663
[OGL LOG][Proc: 0]global_index_init : 14 mu s
[OGL LOG][Proc: 0]global_index_init : 2 mu s
[OGL LOG][Proc: 0]global_index_init : 1 mu s
[OGL LOG][Proc: 0]global_index_init : 2 mu s
[OGL LOG][Proc: 0]update_host_matrix_data : 46759 mu s
[OGL LOG][Proc: 0]gather_initGuess : 3428 mu s
[OGL LOG][Proc: 0]gather_RHS : 1881 mu s
[OGL LOG][Proc: 0]gather_global_matrix : 0 mu s
[OGL LOG][Proc: 0]generate_solver : 3 mu s
[OGL LOG][Proc: 0]solve : 1591900 mu s
nonehipGKOCG:  Solving for p, Initial residual = 1, Final residual = 4.25866e-05, No Iterations 1457
linear solve p 2820948
time step continuity errors : sum local = 1.69392e-10, global = 2.18684e-22, cumulative = 7.68299e-22
[OGL LOG][Proc: 0]global_index_init : 14 mu s
[OGL LOG][Proc: 0]global_index_init : 2 mu s
[OGL LOG][Proc: 0]global_index_init : 2 mu s
[OGL LOG][Proc: 0]global_index_init : 1 mu s
[OGL LOG][Proc: 0]update_host_matrix_data : 43352 mu s
[OGL LOG][Proc: 0]gather_initGuess : 2758 mu s
[OGL LOG][Proc: 0]gather_RHS : 2364 mu s
[OGL LOG][Proc: 0]gather_global_matrix : 0 mu s
[OGL LOG][Proc: 0]generate_solver : 2 mu s
[OGL LOG][Proc: 0]solve : 1601004 mu s
nonehipGKOCG:  Solving for p, Initial residual = 1, Final residual = 4.38225e-05, No Iterations 1451
linear solve p 2854087
time step continuity errors : sum local = 1.37536e-10, global = -3.23057e-22, cumulative = 4.45243e-22
ExecutionTime = 90.14 s  ClockTime = 83 s

Time = 0.0002

Courant Number mean: 0.00299652 max: 0.0859678
DILUPBiCGStab:  Solving for Ux, Initial residual = 0.0511431, Final residual = 9.19875e-06, No Iterations 5
DILUPBiCGStab:  Solving for Uy, Initial residual = 0.0858871, Final residual = 6.31647e-06, No Iterations 5
DILUPBiCGStab:  Solving for Uz, Initial residual = 0.111557, Final residual = 1.77144e-05, No Iterations 5
linear solve U 1929884
[OGL LOG][Proc: 0]global_index_init : 22 mu s
[OGL LOG][Proc: 0]global_index_init : 1 mu s
[OGL LOG][Proc: 0]global_index_init : 1 mu s
[OGL LOG][Proc: 0]global_index_init : 1 mu s
[OGL LOG][Proc: 0]update_host_matrix_data : 46623 mu s
[OGL LOG][Proc: 0]gather_initGuess : 2676 mu s
[OGL LOG][Proc: 0]gather_RHS : 2699 mu s
[OGL LOG][Proc: 0]gather_global_matrix : 0 mu s
[OGL LOG][Proc: 0]generate_solver : 2 mu s
[OGL LOG][Proc: 0]solve : 1599307 mu s
nonehipGKOCG:  Solving for p, Initial residual = 1, Final residual = 7.38913e-05, No Iterations 1451
linear solve p 2867689
time step continuity errors : sum local = 2.67645e-10, global = -1.14961e-22, cumulative = 3.30282e-22
[OGL LOG][Proc: 0]global_index_init : 11 mu s
[OGL LOG][Proc: 0]global_index_init : 2 mu s
[OGL LOG][Proc: 0]global_index_init : 1 mu s
[OGL LOG][Proc: 0]global_index_init : 1 mu s
[OGL LOG][Proc: 0]update_host_matrix_data : 46185 mu s
[OGL LOG][Proc: 0]gather_initGuess : 2558 mu s
[OGL LOG][Proc: 0]gather_RHS : 2544 mu s
[OGL LOG][Proc: 0]gather_global_matrix : 0 mu s
[OGL LOG][Proc: 0]generate_solver : 2 mu s
[OGL LOG][Proc: 0]solve : 1578441 mu s
nonehipGKOCG:  Solving for p, Initial residual = 1, Final residual = 4.00455e-05, No Iterations 1451
linear solve p 2717252
time step continuity errors : sum local = 1.28714e-10, global = 7.52918e-23, cumulative = 4.05573e-22
ExecutionTime = 101.57 s  ClockTime = 92 s

Time = 0.00025

Courant Number mean: 0.00346136 max: 0.088316
DILUPBiCGStab:  Solving for Ux, Initial residual = 0.0380471, Final residual = 3.90986e-06, No Iterations 5
DILUPBiCGStab:  Solving for Uy, Initial residual = 0.0619949, Final residual = 4.71708e-06, No Iterations 5
DILUPBiCGStab:  Solving for Uz, Initial residual = 0.0916362, Final residual = 9.0407e-06, No Iterations 5
linear solve U 1914251
[OGL LOG][Proc: 0]global_index_init : 21 mu s
[OGL LOG][Proc: 0]global_index_init : 1 mu s
[OGL LOG][Proc: 0]global_index_init : 1 mu s
[OGL LOG][Proc: 0]global_index_init : 2 mu s
[OGL LOG][Proc: 0]update_host_matrix_data : 50433 mu s
[OGL LOG][Proc: 0]gather_initGuess : 2629 mu s
[OGL LOG][Proc: 0]gather_RHS : 2441 mu s
[OGL LOG][Proc: 0]gather_global_matrix : 0 mu s
[OGL LOG][Proc: 0]generate_solver : 2 mu s
[OGL LOG][Proc: 0]solve : 1285163 mu s
nonehipGKOCG:  Solving for p, Initial residual = 1, Final residual = 4.08976e-05, No Iterations 1161
linear solve p 2555916
time step continuity errors : sum local = 1.41446e-10, global = -8.69296e-23, cumulative = 3.18644e-22
[OGL LOG][Proc: 0]global_index_init : 13 mu s
[OGL LOG][Proc: 0]global_index_init : 1 mu s
[OGL LOG][Proc: 0]global_index_init : 2 mu s
[OGL LOG][Proc: 0]global_index_init : 1 mu s
[OGL LOG][Proc: 0]update_host_matrix_data : 47609 mu s
[OGL LOG][Proc: 0]gather_initGuess : 2794 mu s
[OGL LOG][Proc: 0]gather_RHS : 2432 mu s
[OGL LOG][Proc: 0]gather_global_matrix : 0 mu s
[OGL LOG][Proc: 0]generate_solver : 3 mu s
[OGL LOG][Proc: 0]solve : 1089802 mu s
nonehipGKOCG:  Solving for p, Initial residual = 1, Final residual = 3.83149e-05, No Iterations 967
linear solve p 2491097
time step continuity errors : sum local = 1.28807e-10, global = 1.15133e-22, cumulative = 4.33777e-22
ExecutionTime = 111.88 s  ClockTime = 101 s

End

Finalising parallel run
================================================================================
hash: a9e297046cf4f195f8810816384c4e59
/*---------------------------------------------------------------------------*\
| =========                 |                                                 |
| \\      /  F ield         | OpenFOAM: The Open Source CFD Toolbox           |
|  \\    /   O peration     | Version:  v2106                                 |
|   \\  /    A nd           | Website:  www.openfoam.com                      |
|    \\/     M anipulation  |                                                 |
\*---------------------------------------------------------------------------*/
Build  : f815a12bba-20210902 OPENFOAM=2106
Arch   : "LSB;label=32;scalar=64"
Exec   : icoFoam -parallel
Date   : Mar 08 2022
Time   : 16:47:51
Host   : nla-gpu2.ianm.kit.edu
PID    : 159512
I/O    : uncollated
Case   : /home/greole/data/code/ogl_labbook/lidDrivenCavity/scaling/Variation_mesh/200/Variation_matrix_solver/CG_NoPrecond_HIP/Variation_mpiRank_gko/5/base
nProcs : 5
Hosts  :
(
    (nla-gpu2.ianm.kit.edu 5)
)
Pstream initialized with:
    floatTransfer      : 0
    nProcsSimpleSum    : 0
    commsType          : nonBlocking
    polling iterations : 0
trapFpe: Floating point exception trapping enabled (FOAM_SIGFPE).
fileModificationChecking : Monitoring run-time modified files using timeStampMaster (fileModificationSkew 5, maxFileModificationPolls 20)
allowSystemOperations : Allowing user-supplied system call operations

// * * * * * * * * * * * * * * * * * * * * * * * * * * * * * * * * * * * * * //
Create time

Create mesh for time = 0


PISO: Operating solver in PISO mode

Reading transportProperties

Reading field p

Reading field U

Reading/calculating face flux field phi


Starting time loop

Time = 5e-05

Courant Number mean: 0 max: 0
DILUPBiCGStab:  Solving for Ux, Initial residual = 1, Final residual = 0.000126481, No Iterations 5
DILUPBiCGStab:  Solving for Uy:  solution singularity
DILUPBiCGStab:  Solving for Uz:  solution singularity
linear solve U 956585
[OGL LOG][Proc: 0]global_index_init : 52936 mu s
[OGL LOG][Proc: 0]global_index_init : 3 mu s
[OGL LOG][Proc: 0]global_index_init : 3 mu s
[OGL LOG][Proc: 0]global_index_init : 3 mu s
[OGL LOG][Proc: 0]init_host_sparsity_pattern : 30753700 mu s
[OGL LOG][Proc: 0]update_host_matrix_data : 56712 mu s
[OGL LOG][Proc: 0]convert_coo_to_csr : 491963 mu s
[OGL LOG][Proc: 0]gather_initGuess : 2705 mu s
[OGL LOG][Proc: 0]gather_RHS : 2897 mu s
[OGL LOG][Proc: 0]gather_global_matrix : 0 mu s
[OGL LOG][Proc: 0]generate_solver : 17 mu s
[OGL LOG][Proc: 0]solve : 2410870 mu s
nonehipGKOCG:  Solving for p, Initial residual = 1, Final residual = 9.67504e-05, No Iterations 1616
linear solve p 42341808
time step continuity errors : sum local = 6.40076e-10, global = 4.43899e-22, cumulative = 4.43899e-22
[OGL LOG][Proc: 0]global_index_init : 48 mu s
[OGL LOG][Proc: 0]global_index_init : 2 mu s
[OGL LOG][Proc: 0]global_index_init : 2 mu s
[OGL LOG][Proc: 0]global_index_init : 2 mu s
[OGL LOG][Proc: 0]update_host_matrix_data : 33153 mu s
[OGL LOG][Proc: 0]gather_initGuess : 1766 mu s
[OGL LOG][Proc: 0]gather_RHS : 1579 mu s
[OGL LOG][Proc: 0]gather_global_matrix : 0 mu s
[OGL LOG][Proc: 0]generate_solver : 2 mu s
[OGL LOG][Proc: 0]solve : 1688838 mu s
nonehipGKOCG:  Solving for p, Initial residual = 1, Final residual = 2.75584e-05, No Iterations 1601
linear solve p 2797145
time step continuity errors : sum local = 8.07867e-11, global = 1.98317e-23, cumulative = 4.6373e-22
ExecutionTime = 60.7 s  ClockTime = 59 s

Time = 0.0001

Courant Number mean: 0.00156134 max: 0.0657786
DILUPBiCGStab:  Solving for Ux, Initial residual = 0.189842, Final residual = 7.15054e-05, No Iterations 5
DILUPBiCGStab:  Solving for Uy, Initial residual = 0.330054, Final residual = 5.90466e-05, No Iterations 5
DILUPBiCGStab:  Solving for Uz, Initial residual = 0.991663, Final residual = 0.000220293, No Iterations 5
linear solve U 1537345
[OGL LOG][Proc: 0]global_index_init : 17 mu s
[OGL LOG][Proc: 0]global_index_init : 9 mu s
[OGL LOG][Proc: 0]global_index_init : 2 mu s
[OGL LOG][Proc: 0]global_index_init : 2 mu s
[OGL LOG][Proc: 0]update_host_matrix_data : 34193 mu s
[OGL LOG][Proc: 0]gather_initGuess : 2500 mu s
[OGL LOG][Proc: 0]gather_RHS : 1677 mu s
[OGL LOG][Proc: 0]gather_global_matrix : 0 mu s
[OGL LOG][Proc: 0]generate_solver : 4 mu s
[...]
DILUPBiCGStab:  Solving for Uy:  solution singularity
DILUPBiCGStab:  Solving for Uz:  solution singularity
linear solve U 5216282
[OGL LOG][Proc: 0]global_index_init : 17994 mu s
[OGL LOG][Proc: 0]global_index_init : 2 mu s
[OGL LOG][Proc: 0]global_index_init : 1 mu s
[OGL LOG][Proc: 0]global_index_init : 2 mu s
[OGL LOG][Proc: 0]init_host_sparsity_pattern : 413741154 mu s
[OGL LOG][Proc: 0]update_host_matrix_data : 414639 mu s
[OGL LOG][Proc: 0]convert_coo_to_csr : 1395416 mu s
[OGL LOG][Proc: 0]gather_initGuess : 11314 mu s
[OGL LOG][Proc: 0]gather_RHS : 12496 mu s
[OGL LOG][Proc: 0]gather_global_matrix : 0 mu s
[OGL LOG][Proc: 0]generate_solver : 18 mu s
[OGL LOG][Proc: 0]solve : 11101604 mu s
nonehipGKOCG:  Solving for p, Initial residual = 1, Final residual = 9.70391e-05, No Iterations 2436
linear solve p 493233489
time step continuity errors : sum local = 3.5691e-10, global = -1.48153e-22, cumulative = -1.48153e-22
[OGL LOG][Proc: 0]global_index_init : 18 mu s
[OGL LOG][Proc: 0]global_index_init : 1 mu s
[OGL LOG][Proc: 0]global_index_init : 1 mu s
[OGL LOG][Proc: 0]global_index_init : 1 mu s
[OGL LOG][Proc: 0]update_host_matrix_data : 275706 mu s
[OGL LOG][Proc: 0]gather_initGuess : 14274 mu s
[OGL LOG][Proc: 0]gather_RHS : 13091 mu s
[OGL LOG][Proc: 0]gather_global_matrix : 0 mu s
[OGL LOG][Proc: 0]generate_solver : 2 mu s
[OGL LOG][Proc: 0]solve : 10011938 mu s
nonehipGKOCG:  Solving for p, Initial residual = 1, Final residual = 2.42856e-05, No Iterations 2426
linear solve p 16416631
time step continuity errors : sum local = 3.43764e-11, global = -3.95136e-23, cumulative = -1.87666e-22
ExecutionTime = 575.8 s  ClockTime = 567 s

Time = 6.66667e-05

Courant Number mean: 0.00132221 max: 0.071551
DILUPBiCGStab:  Solving for Ux, Initial residual = 0.172368, Final residual = 0.00032443, No Iterations 5
DILUPBiCGStab:  Solving for Uy, Initial residual = 0.340834, Final residual = 0.000212462, No Iterations 5
DILUPBiCGStab:  Solving for Uz, Initial residual = 0.99451, Final residual = 0.000965055, No Iterations 5
linear solve U 9724028
[OGL LOG][Proc: 0]global_index_init : 16 mu s
[OGL LOG][Proc: 0]global_index_init : 1 mu s
[OGL LOG][Proc: 0]global_index_init : 1 mu s
[OGL LOG][Proc: 0]global_index_init : 2 mu s
[OGL LOG][Proc: 0]update_host_matrix_data : 351004 mu s
[OGL LOG][Proc: 0]gather_initGuess : 94058 mu s
[OGL LOG][Proc: 0]gather_RHS : 12751 mu s
[OGL LOG][Proc: 0]gather_global_matrix : 0 mu s
[OGL LOG][Proc: 0]generate_solver : 2 mu s
[OGL LOG][Proc: 0]solve : 10454463 mu s
nonehipGKOCG:  Solving for p, Initial residual = 1, Final residual = 5.05487e-05, No Iterations 2426
linear solve p 16862131
time step continuity errors : sum local = 1.90816e-10, global = -2.77176e-23, cumulative = -2.15384e-22
[OGL LOG][Proc: 0]global_index_init : 19 mu s
[OGL LOG][Proc: 0]global_index_init : 2 mu s
[OGL LOG][Proc: 0]global_index_init : 1 mu s
[OGL LOG][Proc: 0]global_index_init : 2 mu s
[OGL LOG][Proc: 0]update_host_matrix_data : 388547 mu s
[OGL LOG][Proc: 0]gather_initGuess : 9662 mu s
[OGL LOG][Proc: 0]gather_RHS : 12772 mu s
[OGL LOG][Proc: 0]gather_global_matrix : 0 mu s
[OGL LOG][Proc: 0]generate_solver : 2 mu s
[OGL LOG][Proc: 0]solve : 10087079 mu s
nonehipGKOCG:  Solving for p, Initial residual = 1, Final residual = 6.78176e-05, No Iterations 2329
linear solve p 16489096
time step continuity errors : sum local = 1.04119e-10, global = 1.05013e-23, cumulative = -2.04882e-22
ExecutionTime = 636.67 s  ClockTime = 620 s

Time = 0.0001

Courant Number mean: 0.00202513 max: 0.0848313
DILUPBiCGStab:  Solving for Ux, Initial residual = 0.0716981, Final residual = 0.000103308, No Iterations 5
DILUPBiCGStab:  Solving for Uy, Initial residual = 0.137146, Final residual = 5.50307e-05, No Iterations 5
DILUPBiCGStab:  Solving for Uz, Initial residual = 0.1938, Final residual = 0.000274829, No Iterations 5
linear solve U 9708947
[OGL LOG][Proc: 0]global_index_init : 17 mu s
[OGL LOG][Proc: 0]global_index_init : 1 mu s
[OGL LOG][Proc: 0]global_index_init : 1 mu s
[OGL LOG][Proc: 0]global_index_init : 1 mu s
[OGL LOG][Proc: 0]update_host_matrix_data : 437451 mu s
[OGL LOG][Proc: 0]gather_initGuess : 11557 mu s
[OGL LOG][Proc: 0]gather_RHS : 12544 mu s
[OGL LOG][Proc: 0]gather_global_matrix : 0 mu s
[OGL LOG][Proc: 0]generate_solver : 2 mu s
[OGL LOG][Proc: 0]solve : 10459062 mu s
nonehipGKOCG:  Solving for p, Initial residual = 1, Final residual = 2.35657e-05, No Iterations 2419
linear solve p 16913899
time step continuity errors : sum local = 5.24484e-11, global = 5.45076e-23, cumulative = -1.50375e-22
[OGL LOG][Proc: 0]global_index_init : 18 mu s
[OGL LOG][Proc: 0]global_index_init : 1 mu s
[OGL LOG][Proc: 0]global_index_init : 1 mu s
[OGL LOG][Proc: 0]global_index_init : 2 mu s
[OGL LOG][Proc: 0]update_host_matrix_data : 268299 mu s
[OGL LOG][Proc: 0]gather_initGuess : 96461 mu s
[OGL LOG][Proc: 0]gather_RHS : 12473 mu s
[OGL LOG][Proc: 0]gather_global_matrix : 0 mu s
[OGL LOG][Proc: 0]generate_solver : 2 mu s
[OGL LOG][Proc: 0]solve : 9875994 mu s
nonehipGKOCG:  Solving for p, Initial residual = 1, Final residual = 6.84633e-05, No Iterations 2305
linear solve p 16193382
time step continuity errors : sum local = 1.00159e-10, global = -6.59056e-23, cumulative = -2.1628e-22
ExecutionTime = 697.58 s  ClockTime = 672 s

Time = 0.000133333

Courant Number mean: 0.00251201 max: 0.0887251
DILUPBiCGStab:  Solving for Ux, Initial residual = 0.046686, Final residual = 4.40377e-05, No Iterations 5
DILUPBiCGStab:  Solving for Uy, Initial residual = 0.0862178, Final residual = 2.26695e-05, No Iterations 5
DILUPBiCGStab:  Solving for Uz, Initial residual = 0.113819, Final residual = 0.000107621, No Iterations 5
linear solve U 9756465
[OGL LOG][Proc: 0]global_index_init : 26 mu s
[OGL LOG][Proc: 0]global_index_init : 1 mu s
[OGL LOG][Proc: 0]global_index_init : 1 mu s
[OGL LOG][Proc: 0]global_index_init : 1 mu s
[OGL LOG][Proc: 0]update_host_matrix_data : 372959 mu s
[OGL LOG][Proc: 0]gather_initGuess : 13531 mu s
[OGL LOG][Proc: 0]gather_RHS : 12713 mu s
[OGL LOG][Proc: 0]gather_global_matrix : 0 mu s
[OGL LOG][Proc: 0]generate_solver : 2 mu s
[OGL LOG][Proc: 0]solve : 10251788 mu s
nonehipGKOCG:  Solving for p, Initial residual = 1, Final residual = 1.94781e-05, No Iterations 2393
linear solve p 16572416
time step continuity errors : sum local = 3.72933e-11, global = 1.32962e-23, cumulative = -2.02984e-22
[OGL LOG][Proc: 0]global_index_init : 17 mu s
[OGL LOG][Proc: 0]global_index_init : 1 mu s
[OGL LOG][Proc: 0]global_index_init : 1 mu s
[OGL LOG][Proc: 0]global_index_init : 1 mu s
[OGL LOG][Proc: 0]update_host_matrix_data : 343285 mu s
[OGL LOG][Proc: 0]gather_initGuess : 16025 mu s
[OGL LOG][Proc: 0]gather_RHS : 12765 mu s
[OGL LOG][Proc: 0]gather_global_matrix : 0 mu s
[OGL LOG][Proc: 0]generate_solver : 2 mu s
[OGL LOG][Proc: 0]solve : 9846927 mu s
nonehipGKOCG:  Solving for p, Initial residual = 1, Final residual = 8.71903e-05, No Iterations 2281
linear solve p 16144467
time step continuity errors : sum local = 1.30024e-10, global = 2.39847e-23, cumulative = -1.79e-22
ExecutionTime = 757.6 s  ClockTime = 724 s

Time = 0.000166667

Courant Number mean: 0.00290337 max: 0.090587
DILUPBiCGStab:  Solving for Ux, Initial residual = 0.0352331, Final residual = 1.9346e-05, No Iterations 5
DILUPBiCGStab:  Solving for Uy, Initial residual = 0.0624564, Final residual = 1.36729e-05, No Iterations 5
DILUPBiCGStab:  Solving for Uz, Initial residual = 0.0896495, Final residual = 5.38222e-05, No Iterations 5
linear solve U 9730224
[OGL LOG][Proc: 0]global_index_init : 16 mu s
[OGL LOG][Proc: 0]global_index_init : 2 mu s
[OGL LOG][Proc: 0]global_index_init : 1 mu s
[OGL LOG][Proc: 0]global_index_init : 1 mu s
[OGL LOG][Proc: 0]update_host_matrix_data : 376792 mu s
[OGL LOG][Proc: 0]gather_initGuess : 16110 mu s
[OGL LOG][Proc: 0]gather_RHS : 11840 mu s
[OGL LOG][Proc: 0]gather_global_matrix : 0 mu s
[OGL LOG][Proc: 0]generate_solver : 3 mu s
[OGL LOG][Proc: 0]solve : 10142559 mu s
nonehipGKOCG:  Solving for p, Initial residual = 1, Final residual = 3.21421e-05, No Iterations 2367
linear solve p 16586910
time step continuity errors : sum local = 5.31171e-11, global = 1.66828e-23, cumulative = -1.62317e-22
[OGL LOG][Proc: 0]global_index_init : 36 mu s
[OGL LOG][Proc: 0]global_index_init : 2 mu s
[OGL LOG][Proc: 0]global_index_init : 1 mu s
[OGL LOG][Proc: 0]global_index_init : 1 mu s
[OGL LOG][Proc: 0]update_host_matrix_data : 289092 mu s
[OGL LOG][Proc: 0]gather_initGuess : 13924 mu s
[OGL LOG][Proc: 0]gather_RHS : 12163 mu s
[OGL LOG][Proc: 0]gather_global_matrix : 1 mu s
[OGL LOG][Proc: 0]generate_solver : 2 mu s
[OGL LOG][Proc: 0]solve : 10075726 mu s
nonehipGKOCG:  Solving for p, Initial residual = 1, Final residual = 3.00705e-05, No Iterations 2351
linear solve p 16342795
time step continuity errors : sum local = 4.47193e-11, global = -4.2245e-23, cumulative = -2.04562e-22
ExecutionTime = 817.86 s  ClockTime = 776 s

End

Finalising parallel run
================================================================================
hash: 65ba5de847e0838a92603711789ed47d
/*---------------------------------------------------------------------------*\
| =========                 |                                                 |
| \\      /  F ield         | OpenFOAM: The Open Source CFD Toolbox           |
|  \\    /   O peration     | Version:  v2106                                 |
|   \\  /    A nd           | Website:  www.openfoam.com                      |
|    \\/     M anipulation  |                                                 |
\*---------------------------------------------------------------------------*/
Build  : f815a12bba-20210902 OPENFOAM=2106
Arch   : "LSB;label=32;scalar=64"
Exec   : icoFoam -parallel
Date   : Mar 08 2022
Time   : 20:09:11
Host   : nla-gpu2.ianm.kit.edu
PID    : 162353
I/O    : uncollated
Case   : /home/greole/data/code/ogl_labbook/lidDrivenCavity/scaling/Variation_mesh/300/Variation_matrix_solver/CG_NoPrecond_HIP/Variation_mpiRank_gko/6/base
nProcs : 6
Hosts  :
(
    (nla-gpu2.ianm.kit.edu 6)
)
Pstream initialized with:
    floatTransfer      : 0
    nProcsSimpleSum    : 0
    commsType          : nonBlocking
    polling iterations : 0
trapFpe: Floating point exception trapping enabled (FOAM_SIGFPE).
fileModificationChecking : Monitoring run-time modified files using timeStampMaster (fileModificationSkew 5, maxFileModificationPolls 20)
allowSystemOperations : Allowing user-supplied system call operations

// * * * * * * * * * * * * * * * * * * * * * * * * * * * * * * * * * * * * * //
Create time

Create mesh for time = 0


PISO: Operating solver in PISO mode

Reading transportProperties

Reading field p

Reading field U

Reading/calculating face flux field phi


Starting time loop

Time = 3.33333e-05

Courant Number mean: 0 max: 0
DILUPBiCGStab:  Solving for Ux, Initial residual = 1, Final residual = 0.000587023, No Iterations 5
DILUPBiCGStab:  Solving for Uy:  solution singularity
DILUPBiCGStab:  Solving for Uz:  solution singularity
linear solve U 2625713
[OGL LOG][Proc: 0]global_index_init : 57 mu s
[OGL LOG][Proc: 0]global_index_init : 3 mu s
[OGL LOG][Proc: 0]global_index_init : 3 mu s
[OGL LOG][Proc: 0]global_index_init : 10 mu s
[OGL LOG][Proc: 0]init_host_sparsity_pattern : 188063302 mu s
[OGL LOG][Proc: 0]update_host_matrix_data : 262606 mu s
[OGL LOG][Proc: 0]convert_coo_to_csr : 1741956 mu s
[OGL LOG][Proc: 0]gather_initGuess : 6195 mu s
[OGL LOG][Proc: 0]gather_RHS : 8756 mu s
[OGL LOG][Proc: 0]gather_global_matrix : 0 mu s
[OGL LOG][Proc: 0]generate_solver : 18 mu s
[OGL LOG][Proc: 0]solve : 6586885 mu s
nonehipGKOCG:  Solving for p, Initial residual = 1, Final residual = 9.73775e-05, No Iterations 2437
linear solve p 221287524
time step continuity errors : sum local = 3.58586e-10, global = 2.87266e-22, cumulative = 2.87266e-22
[OGL LOG][Proc: 0]global_index_init : 27 mu s
[OGL LOG][Proc: 0]global_index_init : 2 mu s
[OGL LOG][Proc: 0]global_index_init : 3 mu s
[OGL LOG][Proc: 0]global_index_init : 2 mu s
[OGL LOG][Proc: 0]update_host_matrix_data : 176556 mu s
[OGL LOG][Proc: 0]gather_initGuess : 6902 mu s
[OGL LOG][Proc: 0]gather_RHS : 5223 mu s
[OGL LOG][Proc: 0]gather_global_matrix : 0 mu s
[OGL LOG][Proc: 0]generate_solver : 2 mu s
[OGL LOG][Proc: 0]solve : 5553698 mu s
nonehipGKOCG:  Solving for p, Initial residual = 1, Final residual = 2.42956e-05, No Iterations 2426
linear solve p 9209592
time step continuity errors : sum local = 3.43938e-11, global = -1.78378e-23, cumulative = 2.69428e-22
ExecutionTime = 268.63 s  ClockTime = 261 s

Time = 6.66667e-05

Courant Number mean: 0.00132218 max: 0.0715368
DILUPBiCGStab:  Solving for Ux, Initial residual = 0.172368, Final residual = 0.000349791, No Iterations 5
DILUPBiCGStab:  Solving for Uy, Initial residual = 0.340828, Final residual = 0.000298438, No Iterations 5
DILUPBiCGStab:  Solving for Uz, Initial residual = 0.989276, Final residual = 0.00120957, No Iterations 5
linear solve U 4923527
[OGL LOG][Proc: 0]global_index_init : 28 mu s
[OGL LOG][Proc: 0]global_index_init : 2 mu s
[OGL LOG][Proc: 0]global_index_init : 2 mu s
[OGL LOG][Proc: 0]global_index_init : 2 mu s
[OGL LOG][Proc: 0]update_host_matrix_data : 234658 mu s
[OGL LOG][Proc: 0]gather_initGuess : 10673 mu s
[OGL LOG][Proc: 0]gather_RHS : 7240 mu s
[OGL LOG][Proc: 0]gather_global_matrix : 0 mu s
[OGL LOG][Proc: 0]generate_solver : 2 mu s
[OGL LOG][Proc: 0]solve : 5541419 mu s
nonehipGKOCG:  Solving for p, Initial residual = 1, Final residual = 5.12565e-05, No Iterations 2426
linear solve p 9106987
time step continuity errors : sum local = 1.94503e-10, global = 6.67216e-23, cumulative = 3.36149e-22
[OGL LOG][Proc: 0]global_index_init : 22 mu s
[OGL LOG][Proc: 0]global_index_init : 2 mu s
[OGL LOG][Proc: 0]global_index_init : 3 mu s
[OGL LOG][Proc: 0]global_index_init : 2 mu s
[OGL LOG][Proc: 0]update_host_matrix_data : 163819 mu s
[OGL LOG][Proc: 0]gather_initGuess : 10615 mu s
[OGL LOG][Proc: 0]gather_RHS : 6910 mu s
[OGL LOG][Proc: 0]gather_global_matrix : 0 mu s
[OGL LOG][Proc: 0]generate_solver : 2 mu s
[OGL LOG][Proc: 0]solve : 5346630 mu s
nonehipGKOCG:  Solving for p, Initial residual = 1, Final residual = 6.66726e-05, No Iterations 2329
linear solve p 8854979
time step continuity errors : sum local = 1.0242e-10, global = 4.44023e-23, cumulative = 3.80552e-22
ExecutionTime = 303.28 s  ClockTime = 289 s

Time = 0.0001

Courant Number mean: 0.00202507 max: 0.08483
DILUPBiCGStab:  Solving for Ux, Initial residual = 0.0717005, Final residual = 0.000111371, No Iterations 5
DILUPBiCGStab:  Solving for Uy, Initial residual = 0.137148, Final residual = 7.92083e-05, No Iterations 5
DILUPBiCGStab:  Solving for Uz, Initial residual = 0.195204, Final residual = 0.000309609, No Iterations 5
linear solve U 4925993
[OGL LOG][Proc: 0]global_index_init : 17 mu s
[OGL LOG][Proc: 0]global_index_init : 2 mu s
[OGL LOG][Proc: 0]global_index_init : 2 mu s
[OGL LOG][Proc: 0]global_index_init : 3 mu s
[OGL LOG][Proc: 0]update_host_matrix_data : 176417 mu s
[OGL LOG][Proc: 0]gather_initGuess : 7663 mu s
[OGL LOG][Proc: 0]gather_RHS : 6704 mu s
[OGL LOG][Proc: 0]gather_global_matrix : 0 mu s
[OGL LOG][Proc: 0]generate_solver : 2 mu s
[OGL LOG][Proc: 0]solve : 5553601 mu s
nonehipGKOCG:  Solving for p, Initial residual = 1, Final residual = 2.41851e-05, No Iterations 2419
linear solve p 9124225
time step continuity errors : sum local = 5.39504e-11, global = -7.08601e-23, cumulative = 3.09691e-22
[OGL LOG][Proc: 0]global_index_init : 30 mu s
[OGL LOG][Proc: 0]global_index_init : 2 mu s
[OGL LOG][Proc: 0]global_index_init : 3 mu s
[OGL LOG][Proc: 0]global_index_init : 3 mu s
[OGL LOG][Proc: 0]update_host_matrix_data : 223994 mu s
[OGL LOG][Proc: 0]gather_initGuess : 9897 mu s
[OGL LOG][Proc: 0]gather_RHS : 6921 mu s
[OGL LOG][Proc: 0]gather_global_matrix : 0 mu s
[OGL LOG][Proc: 0]generate_solver : 2 mu s
[OGL LOG][Proc: 0]solve : 5285208 mu s
nonehipGKOCG:  Solving for p, Initial residual = 1, Final residual = 6.75075e-05, No Iterations 2305
linear solve p 8917894
time step continuity errors : sum local = 9.87728e-11, global = -4.88318e-23, cumulative = 2.6086e-22
ExecutionTime = 338.09 s  ClockTime = 316 s

Time = 0.000133333

Courant Number mean: 0.00251193 max: 0.0887226
DILUPBiCGStab:  Solving for Ux, Initial residual = 0.0466877, Final residual = 4.79389e-05, No Iterations 5
DILUPBiCGStab:  Solving for Uy, Initial residual = 0.086218, Final residual = 3.41675e-05, No Iterations 5
DILUPBiCGStab:  Solving for Uz, Initial residual = 0.11429, Final residual = 0.000127173, No Iterations 5
linear solve U 4903131
[OGL LOG][Proc: 0]global_index_init : 18 mu s
[OGL LOG][Proc: 0]global_index_init : 2 mu s
[OGL LOG][Proc: 0]global_index_init : 2 mu s
[OGL LOG][Proc: 0]global_index_init : 3 mu s
[OGL LOG][Proc: 0]update_host_matrix_data : 159591 mu s
[OGL LOG][Proc: 0]gather_initGuess : 52364 mu s
[OGL LOG][Proc: 0]gather_RHS : 7058 mu s
[OGL LOG][Proc: 0]gather_global_matrix : 0 mu s
[OGL LOG][Proc: 0]generate_solver : 2 mu s
[OGL LOG][Proc: 0]solve : 5516511 mu s
nonehipGKOCG:  Solving for p, Initial residual = 1, Final residual = 1.83476e-05, No Iterations 2393
linear solve p 9090774
time step continuity errors : sum local = 3.52039e-11, global = 6.08304e-23, cumulative = 3.2169e-22
[OGL LOG][Proc: 0]global_index_init : 27 mu s
[OGL LOG][Proc: 0]global_index_init : 2 mu s
[OGL LOG][Proc: 0]global_index_init : 2 mu s
[OGL LOG][Proc: 0]global_index_init : 2 mu s
[OGL LOG][Proc: 0]update_host_matrix_data : 223026 mu s
[OGL LOG][Proc: 0]gather_initGuess : 10968 mu s
[OGL LOG][Proc: 0]gather_RHS : 6254 mu s
[OGL LOG][Proc: 0]gather_global_matrix : 0 mu s
[OGL LOG][Proc: 0]generate_solver : 2 mu s
[OGL LOG][Proc: 0]solve : 5209181 mu s
nonehipGKOCG:  Solving for p, Initial residual = 1, Final residual = 8.59067e-05, No Iterations 2281
linear solve p 8724486
time step continuity errors : sum local = 1.28126e-10, global = -1.33146e-22, cumulative = 1.88544e-22
ExecutionTime = 372.92 s  ClockTime = 344 s

Time = 0.000166667

Courant Number mean: 0.00290328 max: 0.0905868
DILUPBiCGStab:  Solving for Ux, Initial residual = 0.0352345, Final residual = 2.26143e-05, No Iterations 5
DILUPBiCGStab:  Solving for Uy, Initial residual = 0.0624559, Final residual = 2.23123e-05, No Iterations 5
DILUPBiCGStab:  Solving for Uz, Initial residual = 0.0900481, Final residual = 7.17946e-05, No Iterations 5
linear solve U 4923342
[OGL LOG][Proc: 0]global_index_init : 21 mu s
[OGL LOG][Proc: 0]global_index_init : 3 mu s
[OGL LOG][Proc: 0]global_index_init : 3 mu s
[OGL LOG][Proc: 0]global_index_init : 3 mu s
[OGL LOG][Proc: 0]update_host_matrix_data : 181332 mu s
[OGL LOG][Proc: 0]gather_initGuess : 7848 mu s
[OGL LOG][Proc: 0]gather_RHS : 6548 mu s
[OGL LOG][Proc: 0]gather_global_matrix : 0 mu s
[OGL LOG][Proc: 0]generate_solver : 2 mu s
[OGL LOG][Proc: 0]solve : 5495588 mu s
nonehipGKOCG:  Solving for p, Initial residual = 1, Final residual = 8.61964e-05, No Iterations 2276
linear solve p 9074199
time step continuity errors : sum local = 1.42688e-10, global = -5.07424e-24, cumulative = 1.8347e-22
[OGL LOG][Proc: 0]global_index_init : 27 mu s
[OGL LOG][Proc: 0]global_index_init : 3 mu s
[OGL LOG][Proc: 0]global_index_init : 3 mu s
[OGL LOG][Proc: 0]global_index_init : 2 mu s
[OGL LOG][Proc: 0]update_host_matrix_data : 221321 mu s
[OGL LOG][Proc: 0]gather_initGuess : 9832 mu s
[OGL LOG][Proc: 0]gather_RHS : 6122 mu s
[OGL LOG][Proc: 0]gather_global_matrix : 0 mu s
[OGL LOG][Proc: 0]generate_solver : 2 mu s
[OGL LOG][Proc: 0]solve : 5489179 mu s
nonehipGKOCG:  Solving for p, Initial residual = 1, Final residual = 8.49617e-05, No Iterations 2276
linear solve p 9038125
time step continuity errors : sum local = 1.26358e-10, global = 4.66646e-23, cumulative = 2.30134e-22
ExecutionTime = 407.23 s  ClockTime = 372 s

End

Finalising parallel run
================================================================================
