hash: 43aa10dbf0433b8f09a80f53b35b02ba
/*---------------------------------------------------------------------------*\
| =========                 |                                                 |
| \\      /  F ield         | OpenFOAM: The Open Source CFD Toolbox           |
|  \\    /   O peration     | Version:  2112                                  |
|   \\  /    A nd           | Website:  www.openfoam.com                      |
|    \\/     M anipulation  |                                                 |
\*---------------------------------------------------------------------------*/
Build  : d44c8318f0-20220111 OPENFOAM=2112 version=v2112
Arch   : "LSB;label=32;scalar=64"
Exec   : simpleFoam -parallel
Date   : May 04 2022
Time   : 16:56:24
Host   : hkn0317.localdomain
PID    : 1312827
I/O    : uncollated
Case   : /hkfs/work/workspace/scratch/eq4036-motorcycle/Variation_mesh/Small/Variation_matrix_solver/CG_DIC_DefaultOF/Variation_mpiRank_of/152/base
nProcs : 152
Hosts  :
(
    (hkn0317.localdomain 76)
    (hkn0320.localdomain 76)
)
Pstream initialized with:
    floatTransfer      : 0
    nProcsSimpleSum    : 0
    commsType          : nonBlocking
    polling iterations : 0
trapFpe: Floating point exception trapping enabled (FOAM_SIGFPE).
fileModificationChecking : Monitoring run-time modified files using timeStampMaster (fileModificationSkew 5, maxFileModificationPolls 20)
allowSystemOperations : Allowing user-supplied system call operations

// * * * * * * * * * * * * * * * * * * * * * * * * * * * * * * * * * * * * * //
Create time

Create mesh for time = 0


SIMPLE: no convergence criteria found. Calculations will run for 20 steps.

Reading field p

Reading field U

Reading/calculating face flux field phi

Selecting incompressible transport model Newtonian
Selecting turbulence model type RAS
Selecting RAS turbulence model kOmegaSST
Selecting patchDistMethod meshWave
RAS
{
    RASModel        kOmegaSST;
    turbulence      on;
    printCoeffs     on;
    alphaK1         0.85;
    alphaK2         1;
    alphaOmega1     0.5;
    alphaOmega2     0.856;
    gamma1          0.555555555556;
    gamma2          0.44;
    beta1           0.075;
    beta2           0.0828;
    betaStar        0.09;
    a1              0.31;
    b1              1;
    c1              10;
    F3              false;
    decayControl    false;
    kInf            0;
    omegaInf        0;
}

No MRF models present

No finite volume options present

Starting time loop

Time = 1

DILUPBiCGStab:  Solving for Ux, Initial residual = 0.0294031320026, Final residual = 0.00214433835862, No Iterations 3
DILUPBiCGStab:  Solving for Uy, Initial residual = 0.355535715628, Final residual = 0.0342194485603, No Iterations 4
DILUPBiCGStab:  Solving for Uz, Initial residual = 0.258375537584, Final residual = 0.0157624129375, No Iterations 3
linear solve U 125940
DICPCG:  Solving for p, Initial residual = 1, Final residual = 0.00987189754113, No Iterations 143
linear solve p 514318
time step continuity errors : sum local = 0.00083650622718, global = 5.65989681213e-05, cumulative = 5.65989681213e-05
DILUPBiCGStab:  Solving for omega, Initial residual = 0.00242277112678, Final residual = 6.28668811385e-05, No Iterations 1
linear solve omega 21560
bounding omega, min: -87518.32043 max: 824573.236573 average: 2486.77176478
DILUPBiCGStab:  Solving for k, Initial residual = 0.999999999962, Final residual = 0.0497398243553, No Iterations 1
linear solve k 17525
ExecutionTime = 2.43 s  ClockTime = 3 s

Time = 2

DILUPBiCGStab:  Solving for Ux, Initial residual = 0.0153703976673, Final residual = 0.00126788512706, No Iterations 3
DILUPBiCGStab:  Solving for Uy, Initial residual = 0.227420906961, Final residual = 0.0221269264158, No Iterations 3
DILUPBiCGStab:  Solving for Uz, Initial residual = 0.130931916648, Final residual = 0.00793951055358, No Iterations 3
linear solve U 120958
DICPCG:  Solving for p, Initial residual = 0.029106628464, Final residual = 0.000286557987335, No Iterations 141
linear solve p 463909
time step continuity errors : sum local = 0.000758824897482, global = -3.64841899301e-05, cumulative = 2.01147781911e-05
DILUPBiCGStab:  Solving for omega, Initial residual = 0.00116269355135, Final residual = 5.39669745551e-05, No Iterations 1
linear solve omega 20512
bounding omega, min: -228.727091198 max: 828200.025445 average: 2799.66891069
DILUPBiCGStab:  Solving for k, Initial residual = 0.0252042784496, Final residual = 0.00134371243758, No Iterations 1
linear solve k 17649
ExecutionTime = 3.4 s  ClockTime = 4 s

Time = 3

DILUPBiCGStab:  Solving for Ux, Initial residual = 0.00855367829445, Final residual = 0.000759631925055, No Iterations 3
DILUPBiCGStab:  Solving for Uy, Initial residual = 0.161870387117, Final residual = 0.0123718740126, No Iterations 3
DILUPBiCGStab:  Solving for Uz, Initial residual = 0.115103289591, Final residual = 0.00795969590511, No Iterations 3
linear solve U 105135
DICPCG:  Solving for p, Initial residual = 0.0241147928481, Final residual = 0.000239927727941, No Iterations 113
linear solve p 377325
time step continuity errors : sum local = 0.000680305861824, global = -4.4816206516e-05, cumulative = -2.47014283248e-05
DILUPBiCGStab:  Solving for omega, Initial residual = 0.000662755300456, Final residual = 3.31762721378e-05, No Iterations 1
linear solve omega 21930
bounding omega, min: -890.883706499 max: 831402.859887 average: 3043.11769686
DILUPBiCGStab:  Solving for k, Initial residual = 0.0114674431392, Final residual = 0.00061684045292, No Iterations 1
linear solve k 17606
ExecutionTime = 4.25 s  ClockTime = 5 s

Time = 4

DILUPBiCGStab:  Solving for Ux, Initial residual = 0.00593078647154, Final residual = 0.000508007507649, No Iterations 3
DILUPBiCGStab:  Solving for Uy, Initial residual = 0.122941878971, Final residual = 0.00943820825532, No Iterations 3
DILUPBiCGStab:  Solving for Uz, Initial residual = 0.124169205179, Final residual = 0.0094460520623, No Iterations 3
linear solve U 101181
DICPCG:  Solving for p, Initial residual = 0.0224108465212, Final residual = 0.000223900375152, No Iterations 113
linear solve p 432464
time step continuity errors : sum local = 0.000608708964913, global = 4.42109065823e-05, cumulative = 1.95094782575e-05
DILUPBiCGStab:  Solving for omega, Initial residual = 0.000515990350353, Final residual = 2.85938941728e-05, No Iterations 1
linear solve omega 21132
bounding omega, min: -81.2507665254 max: 833362.616789 average: 3271.90220807
DILUPBiCGStab:  Solving for k, Initial residual = 0.00738472919747, Final residual = 0.000392063541648, No Iterations 1
linear solve k 20795
ExecutionTime = 5.16 s  ClockTime = 6 s

Time = 5

DILUPBiCGStab:  Solving for Ux, Initial residual = 0.00451722566859, Final residual = 0.000402108419633, No Iterations 3
DILUPBiCGStab:  Solving for Uy, Initial residual = 0.0975368156856, Final residual = 0.00757571609394, No Iterations 3
DILUPBiCGStab:  Solving for Uz, Initial residual = 0.0999330593344, Final residual = 0.0080561916575, No Iterations 3
linear solve U 104626
DICPCG:  Solving for p, Initial residual = 0.0212443145182, Final residual = 0.000209878951849, No Iterations 110
linear solve p 365548
time step continuity errors : sum local = 0.000554318199269, global = 6.51851238017e-05, cumulative = 8.46946020593e-05
DILUPBiCGStab:  Solving for omega, Initial residual = 0.000475095984649, Final residual = 2.67574868161e-05, No Iterations 1
linear solve omega 20834
bounding omega, min: -107.587503132 max: 834435.524256 average: 3473.97426932
DILUPBiCGStab:  Solving for k, Initial residual = 0.00549950943025, Final residual = 0.000286607325496, No Iterations 1
linear solve k 17900
ExecutionTime = 6.01 s  ClockTime = 7 s

Time = 6

DILUPBiCGStab:  Solving for Ux, Initial residual = 0.0035989925782, Final residual = 0.000324145515641, No Iterations 3
DILUPBiCGStab:  Solving for Uy, Initial residual = 0.0846412938201, Final residual = 0.00678802898009, No Iterations 3
DILUPBiCGStab:  Solving for Uz, Initial residual = 0.0672442236468, Final residual = 0.00527724288663, No Iterations 3
linear solve U 101263
DICPCG:  Solving for p, Initial residual = 0.0198675096212, Final residual = 0.000196784450579, No Iterations 93
linear solve p 300247
time step continuity errors : sum local = 0.000519712121969, global = 7.91630919264e-05, cumulative = 0.000163857693986
DILUPBiCGStab:  Solving for omega, Initial residual = 0.000441224353949, Final residual = 2.47447196565e-05, No Iterations 1
linear solve omega 22203
bounding omega, min: -68.8264394237 max: 835118.265379 average: 3650.27324449
DILUPBiCGStab:  Solving for k, Initial residual = 0.00443678894571, Final residual = 0.000226455206821, No Iterations 1
linear solve k 18882
ExecutionTime = 6.78 s  ClockTime = 8 s

Time = 7

DILUPBiCGStab:  Solving for Ux, Initial residual = 0.00298432146203, Final residual = 0.000269744972275, No Iterations 3
DILUPBiCGStab:  Solving for Uy, Initial residual = 0.0758489750312, Final residual = 0.00632384181717, No Iterations 3
DILUPBiCGStab:  Solving for Uz, Initial residual = 0.0502059548949, Final residual = 0.000393500857179, No Iterations 6
linear solve U 138409
DICPCG:  Solving for p, Initial residual = 0.0187247425683, Final residual = 0.000184612796382, No Iterations 108
linear solve p 369691
time step continuity errors : sum local = 0.000488348587315, global = 0.000111016649944, cumulative = 0.00027487434393
DILUPBiCGStab:  Solving for omega, Initial residual = 0.000414389513951, Final residual = 2.2587284578e-05, No Iterations 1
linear solve omega 21596
bounding omega, min: -71.6073449909 max: 835593.088781 average: 3803.92740257
DILUPBiCGStab:  Solving for k, Initial residual = 0.00376733367801, Final residual = 0.000188586201777, No Iterations 1
linear solve k 18051
ExecutionTime = 7.67 s  ClockTime = 8 s

Time = 8

DILUPBiCGStab:  Solving for Ux, Initial residual = 0.00256450117879, Final residual = 0.000255531308219, No Iterations 3
DILUPBiCGStab:  Solving for Uy, Initial residual = 0.0685286012534, Final residual = 0.00591650870235, No Iterations 3
DILUPBiCGStab:  Solving for Uz, Initial residual = 0.0403663515529, Final residual = 0.00334060108011, No Iterations 3
linear solve U 115575
DICPCG:  Solving for p, Initial residual = 0.017211476287, Final residual = 0.000169193591275, No Iterations 108
linear solve p 371837
time step continuity errors : sum local = 0.000464841523197, global = 7.87586973991e-05, cumulative = 0.000353633041329
DILUPBiCGStab:  Solving for omega, Initial residual = 0.000383372982031, Final residual = 2.04245776227e-05, No Iterations 1
linear solve omega 22493
bounding omega, min: -46.4390146062 max: 835811.737996 average: 3936.0668199
DILUPBiCGStab:  Solving for k, Initial residual = 0.00329643707079, Final residual = 0.000164100799873, No Iterations 1
linear solve k 17661
ExecutionTime = 8.53 s  ClockTime = 9 s

Time = 9

DILUPBiCGStab:  Solving for Ux, Initial residual = 0.00226899577388, Final residual = 0.0001608909205, No Iterations 3
DILUPBiCGStab:  Solving for Uy, Initial residual = 0.0625602771572, Final residual = 0.00547099923861, No Iterations 3
DILUPBiCGStab:  Solving for Uz, Initial residual = 0.034046830303, Final residual = 0.00330779727244, No Iterations 3
linear solve U 109727
DICPCG:  Solving for p, Initial residual = 0.0162523081358, Final residual = 0.000160995860623, No Iterations 108
linear solve p 352591
time step continuity errors : sum local = 0.000451382579249, global = 6.87744003739e-05, cumulative = 0.000422407441703
DILUPBiCGStab:  Solving for omega, Initial residual = 0.000359124758757, Final residual = 1.85513873151e-05, No Iterations 1
linear solve omega 20872
bounding omega, min: -680.915781213 max: 835845.383772 average: 4049.45465651
DILUPBiCGStab:  Solving for k, Initial residual = 0.0029672609344, Final residual = 0.000146670807177, No Iterations 1
linear solve k 17767
ExecutionTime = 9.37 s  ClockTime = 10 s

Time = 10

DILUPBiCGStab:  Solving for Ux, Initial residual = 0.00205751391293, Final residual = 0.000144480867939, No Iterations 3
DILUPBiCGStab:  Solving for Uy, Initial residual = 0.0589541874893, Final residual = 0.00524655543585, No Iterations 3
DILUPBiCGStab:  Solving for Uz, Initial residual = 0.0304829161591, Final residual = 0.00113302965678, No Iterations 4
linear solve U 116348
DICPCG:  Solving for p, Initial residual = 0.0156940244499, Final residual = 0.000156867096264, No Iterations 112
linear solve p 384554
time step continuity errors : sum local = 0.000446052195392, global = 6.27382887356e-05, cumulative = 0.000485145730438
DILUPBiCGStab:  Solving for omega, Initial residual = 0.000335028502864, Final residual = 1.65725560855e-05, No Iterations 1
linear solve omega 22998
bounding omega, min: -36.0164447581 max: 835736.955774 average: 4145.73963633
DILUPBiCGStab:  Solving for k, Initial residual = 0.00272567629376, Final residual = 0.00013521067135, No Iterations 1
linear solve k 21762
ExecutionTime = 10.25 s  ClockTime = 11 s

Time = 11

DILUPBiCGStab:  Solving for Ux, Initial residual = 0.00190768489625, Final residual = 0.000146567455759, No Iterations 3
DILUPBiCGStab:  Solving for Uy, Initial residual = 0.0563946731745, Final residual = 0.00497624985717, No Iterations 3
DILUPBiCGStab:  Solving for Uz, Initial residual = 0.0280076002532, Final residual = 0.00260315547012, No Iterations 3
linear solve U 111502
DICPCG:  Solving for p, Initial residual = 0.0151258985748, Final residual = 0.000147894375392, No Iterations 85
linear solve p 276992
time step continuity errors : sum local = 0.000427843212029, global = 5.22850710756e-05, cumulative = 0.000537430801514
DILUPBiCGStab:  Solving for omega, Initial residual = 0.000312489692175, Final residual = 1.59581120105e-05, No Iterations 1
linear solve omega 20960
bounding omega, min: -33.7229289897 max: 835498.430675 average: 4225.92113358
DILUPBiCGStab:  Solving for k, Initial residual = 0.00254741666105, Final residual = 0.00012636857555, No Iterations 1
linear solve k 17750
ExecutionTime = 11.01 s  ClockTime = 12 s

Time = 12

DILUPBiCGStab:  Solving for Ux, Initial residual = 0.00178080272957, Final residual = 0.000157611807835, No Iterations 3
DILUPBiCGStab:  Solving for Uy, Initial residual = 0.0541554438021, Final residual = 0.00483295432218, No Iterations 3
DILUPBiCGStab:  Solving for Uz, Initial residual = 0.0263805335068, Final residual = 0.0016521748258, No Iterations 3
linear solve U 112546
DICPCG:  Solving for p, Initial residual = 0.0148912751698, Final residual = 0.000148527953804, No Iterations 115
linear solve p 380646
time step continuity errors : sum local = 0.000428900563312, global = 4.75430676467e-05, cumulative = 0.000584973869161
DILUPBiCGStab:  Solving for omega, Initial residual = 0.000293075362382, Final residual = 1.37766157177e-05, No Iterations 1
linear solve omega 28516
bounding omega, min: -21.6051965317 max: 835190.591786 average: 4292.75039585
DILUPBiCGStab:  Solving for k, Initial residual = 0.00242380304596, Final residual = 0.000120615605266, No Iterations 1
linear solve k 21880
ExecutionTime = 11.89 s  ClockTime = 13 s

Time = 13

DILUPBiCGStab:  Solving for Ux, Initial residual = 0.00168898585617, Final residual = 2.18104072052e-05, No Iterations 5
DILUPBiCGStab:  Solving for Uy, Initial residual = 0.0524304060186, Final residual = 0.00452768103152, No Iterations 3
DILUPBiCGStab:  Solving for Uz, Initial residual = 0.0251375081805, Final residual = 0.00245612109297, No Iterations 3
linear solve U 126752
DICPCG:  Solving for p, Initial residual = 0.0142960291017, Final residual = 0.000141827466965, No Iterations 81
linear solve p 288698
time step continuity errors : sum local = 0.000419996698143, global = 4.07366026533e-05, cumulative = 0.000625710471814
DILUPBiCGStab:  Solving for omega, Initial residual = 0.000275177189047, Final residual = 1.28529357973e-05, No Iterations 1
linear solve omega 21923
DILUPBiCGStab:  Solving for k, Initial residual = 0.00233008706302, Final residual = 0.000114938136735, No Iterations 1
linear solve k 16896
ExecutionTime = 12.68 s  ClockTime = 14 s

Time = 14

DILUPBiCGStab:  Solving for Ux, Initial residual = 0.00159292749054, Final residual = 0.000143791167851, No Iterations 4
DILUPBiCGStab:  Solving for Uy, Initial residual = 0.0515532038271, Final residual = 0.00469340362572, No Iterations 3
DILUPBiCGStab:  Solving for Uz, Initial residual = 0.0242032233905, Final residual = 0.00170432884244, No Iterations 3
linear solve U 118403
DICPCG:  Solving for p, Initial residual = 0.0142221162907, Final residual = 0.000141998283457, No Iterations 94
linear solve p 315487
time step continuity errors : sum local = 0.000418050210808, global = 4.70048793694e-05, cumulative = 0.000672715351183
DILUPBiCGStab:  Solving for omega, Initial residual = 0.000258522021479, Final residual = 1.1857327087e-05, No Iterations 1
linear solve omega 20578
bounding omega, min: -2.66051681169 max: 834433.501366 average: 4391.1348236
DILUPBiCGStab:  Solving for k, Initial residual = 0.00226161119579, Final residual = 0.000108519093961, No Iterations 1
linear solve k 19340
ExecutionTime = 13.49 s  ClockTime = 14 s

Time = 15

DILUPBiCGStab:  Solving for Ux, Initial residual = 0.00152365753297, Final residual = 2.02602332236e-05, No Iterations 5
DILUPBiCGStab:  Solving for Uy, Initial residual = 0.0499979123223, Final residual = 0.00432757693639, No Iterations 3
DILUPBiCGStab:  Solving for Uz, Initial residual = 0.0234603785001, Final residual = 0.00147150666706, No Iterations 3
linear solve U 125503
DICPCG:  Solving for p, Initial residual = 0.0140363272156, Final residual = 0.000139624369048, No Iterations 98
linear solve p 328818
time step continuity errors : sum local = 0.000413034485091, global = 2.77583537057e-05, cumulative = 0.000700473704889
DILUPBiCGStab:  Solving for omega, Initial residual = 0.000244307750134, Final residual = 1.10594540033e-05, No Iterations 1
linear solve omega 21113
DILUPBiCGStab:  Solving for k, Initial residual = 0.00221975284438, Final residual = 0.000104247175026, No Iterations 1
linear solve k 21460
ExecutionTime = 14.32 s  ClockTime = 15 s

Time = 16

DILUPBiCGStab:  Solving for Ux, Initial residual = 0.00146170112761, Final residual = 1.93975988729e-05, No Iterations 5
DILUPBiCGStab:  Solving for Uy, Initial residual = 0.0494366777149, Final residual = 0.00431642524033, No Iterations 3
DILUPBiCGStab:  Solving for Uz, Initial residual = 0.0232465113583, Final residual = 0.00183648821547, No Iterations 3
linear solve U 129265
DICPCG:  Solving for p, Initial residual = 0.0139756238022, Final residual = 0.000138451071399, No Iterations 104
linear solve p 347276
time step continuity errors : sum local = 0.00041000609883, global = 2.87124337338e-05, cumulative = 0.000729186138623
DILUPBiCGStab:  Solving for omega, Initial residual = 0.000231427267749, Final residual = 1.03477948218e-05, No Iterations 1
linear solve omega 20923
DILUPBiCGStab:  Solving for k, Initial residual = 0.00218634903001, Final residual = 0.000100311613683, No Iterations 1
linear solve k 17491
ExecutionTime = 15.17 s  ClockTime = 16 s

Time = 17

DILUPBiCGStab:  Solving for Ux, Initial residual = 0.00140586670354, Final residual = 0.000107061974217, No Iterations 3
DILUPBiCGStab:  Solving for Uy, Initial residual = 0.0482165291961, Final residual = 0.00308089055673, No Iterations 3
DILUPBiCGStab:  Solving for Uz, Initial residual = 0.0233405461529, Final residual = 0.00173700025558, No Iterations 5
linear solve U 132804
DICPCG:  Solving for p, Initial residual = 0.0139658560827, Final residual = 0.000137336061481, No Iterations 100
linear solve p 325683
time step continuity errors : sum local = 0.000407136987652, global = 3.09026120624e-05, cumulative = 0.000760088750685
DILUPBiCGStab:  Solving for omega, Initial residual = 0.000220124217062, Final residual = 9.68718802024e-06, No Iterations 1
linear solve omega 20631
DILUPBiCGStab:  Solving for k, Initial residual = 0.00215786552927, Final residual = 9.70774145267e-05, No Iterations 1
linear solve k 17367
ExecutionTime = 15.99 s  ClockTime = 17 s

Time = 18

DILUPBiCGStab:  Solving for Ux, Initial residual = 0.0013620085849, Final residual = 0.000132540987803, No Iterations 3
DILUPBiCGStab:  Solving for Uy, Initial residual = 0.0467325358042, Final residual = 0.00352502380579, No Iterations 3
DILUPBiCGStab:  Solving for Uz, Initial residual = 0.0236153248326, Final residual = 0.000575047197933, No Iterations 5
linear solve U 131056
DICPCG:  Solving for p, Initial residual = 0.0139368086935, Final residual = 0.000139081977072, No Iterations 96
linear solve p 323042
time step continuity errors : sum local = 0.000413565648219, global = 3.25613937279e-05, cumulative = 0.000792650144413
DILUPBiCGStab:  Solving for omega, Initial residual = 0.000210347098709, Final residual = 9.20943665432e-06, No Iterations 1
linear solve omega 20699
DILUPBiCGStab:  Solving for k, Initial residual = 0.0021284679286, Final residual = 9.44419579239e-05, No Iterations 1
linear solve k 16757
ExecutionTime = 16.82 s  ClockTime = 18 s

Time = 19

DILUPBiCGStab:  Solving for Ux, Initial residual = 0.00132305645464, Final residual = 9.49178424138e-05, No Iterations 3
DILUPBiCGStab:  Solving for Uy, Initial residual = 0.0455473849264, Final residual = 0.00161017213106, No Iterations 4
DILUPBiCGStab:  Solving for Uz, Initial residual = 0.0238648461763, Final residual = 0.00236585924707, No Iterations 3
linear solve U 129248
DICPCG:  Solving for p, Initial residual = 0.0138680043122, Final residual = 0.000138046608246, No Iterations 96
linear solve p 324562
time step continuity errors : sum local = 0.000412222418056, global = 4.05515439026e-05, cumulative = 0.000833201688316
DILUPBiCGStab:  Solving for omega, Initial residual = 0.000200846238197, Final residual = 8.70141327463e-06, No Iterations 1
linear solve omega 21319
DILUPBiCGStab:  Solving for k, Initial residual = 0.00209848396185, Final residual = 9.28996731809e-05, No Iterations 1
linear solve k 22003
ExecutionTime = 17.65 s  ClockTime = 19 s

Time = 20

DILUPBiCGStab:  Solving for Ux, Initial residual = 0.00127760573228, Final residual = 7.50485382257e-05, No Iterations 4
DILUPBiCGStab:  Solving for Uy, Initial residual = 0.0434550742934, Final residual = 0.00425936453415, No Iterations 3
DILUPBiCGStab:  Solving for Uz, Initial residual = 0.024468688269, Final residual = 0.00155239513285, No Iterations 3
linear solve U 125013
DICPCG:  Solving for p, Initial residual = 0.0136034210362, Final residual = 0.000135848741004, No Iterations 95
linear solve p 317673
time step continuity errors : sum local = 0.00040983023515, global = 2.37095450477e-05, cumulative = 0.000856911233364
DILUPBiCGStab:  Solving for omega, Initial residual = 0.000192173711171, Final residual = 8.23175529565e-06, No Iterations 1
linear solve omega 23441
DILUPBiCGStab:  Solving for k, Initial residual = 0.00207403517508, Final residual = 9.22743988065e-05, No Iterations 1
linear solve k 19229
ExecutionTime = 18.46 s  ClockTime = 19 s

End

Finalising parallel run
================================================================================
hash: e7406912353f9ecd7b656fa2488dc8ba
/*---------------------------------------------------------------------------*\
| =========                 |                                                 |
| \\      /  F ield         | OpenFOAM: The Open Source CFD Toolbox           |
|  \\    /   O peration     | Version:  2112                                  |
|   \\  /    A nd           | Website:  www.openfoam.com                      |
|    \\/     M anipulation  |                                                 |
\*---------------------------------------------------------------------------*/
Build  : d44c8318f0-20220111 OPENFOAM=2112 version=v2112
Arch   : "LSB;label=32;scalar=64"
Exec   : simpleFoam -parallel
Date   : May 04 2022
Time   : 16:58:22
Host   : hkn1017.localdomain
PID    : 1185347
I/O    : uncollated
Case   : /hkfs/work/workspace/scratch/eq4036-motorcycle/Variation_mesh/Small/Variation_matrix_solver/CG_DIC_DefaultOF/Variation_mpiRank_of/304/base
nProcs : 304
Hosts  :
(
    (hkn1017.localdomain 76)
    (hkn1018.localdomain 76)
    (hkn1020.localdomain 76)
    (hkn1021.localdomain 76)
)
Pstream initialized with:
    floatTransfer      : 0
    nProcsSimpleSum    : 0
    commsType          : nonBlocking
    polling iterations : 0
trapFpe: Floating point exception trapping enabled (FOAM_SIGFPE).
fileModificationChecking : Monitoring run-time modified files using timeStampMaster (fileModificationSkew 5, maxFileModificationPolls 20)
allowSystemOperations : Allowing user-supplied system call operations

// * * * * * * * * * * * * * * * * * * * * * * * * * * * * * * * * * * * * * //
Create time

Create mesh for time = 0


SIMPLE: no convergence criteria found. Calculations will run for 20 steps.

Reading field p

Reading field U

Reading/calculating face flux field phi

Selecting incompressible transport model Newtonian
Selecting turbulence model type RAS
Selecting RAS turbulence model kOmegaSST
Selecting patchDistMethod meshWave
RAS
{
    RASModel        kOmegaSST;
    turbulence      on;
    printCoeffs     on;
    alphaK1         0.85;
    alphaK2         1;
    alphaOmega1     0.5;
    alphaOmega2     0.856;
    gamma1          0.555555555556;
    gamma2          0.44;
    beta1           0.075;
    beta2           0.0828;
    betaStar        0.09;
    a1              0.31;
    b1              1;
    c1              10;
    F3              false;
    decayControl    false;
    kInf            0;
    omegaInf        0;
}

No MRF models present

No finite volume options present

Starting time loop

Time = 1

DILUPBiCGStab:  Solving for Ux, Initial residual = 0.0294031320681, Final residual = 0.00265099034126, No Iterations 3
DILUPBiCGStab:  Solving for Uy, Initial residual = 0.35553571647, Final residual = 0.0265695644829, No Iterations 3
DILUPBiCGStab:  Solving for Uz, Initial residual = 0.258375538469, Final residual = 0.0160164008447, No Iterations 3
linear solve U 67263
DICPCG:  Solving for p, Initial residual = 1, Final residual = 0.00978756786092, No Iterations 143
linear solve p 178364
time step continuity errors : sum local = 0.000826052066006, global = 3.03194989888e-05, cumulative = 3.03194989888e-05
DILUPBiCGStab:  Solving for omega, Initial residual = 0.00242224124748, Final residual = 6.48556789007e-05, No Iterations 1
linear solve omega 12256
bounding omega, min: -87490.2965841 max: 824573.236573 average: 2485.87043601
DILUPBiCGStab:  Solving for k, Initial residual = 0.999999999969, Final residual = 0.0421653915212, No Iterations 1
linear solve k 11683
ExecutionTime = 7.65 s  ClockTime = 25 s

Time = 2

DILUPBiCGStab:  Solving for Ux, Initial residual = 0.0152898774515, Final residual = 0.00123965898349, No Iterations 3
DILUPBiCGStab:  Solving for Uy, Initial residual = 0.221439638041, Final residual = 0.01393971125, No Iterations 3
DILUPBiCGStab:  Solving for Uz, Initial residual = 0.130286056906, Final residual = 0.00883362107648, No Iterations 3
linear solve U 53590
DICPCG:  Solving for p, Initial residual = 0.0284049839241, Final residual = 0.000283869960994, No Iterations 146
linear solve p 165568
time step continuity errors : sum local = 0.000708446725891, global = -2.05348476704e-05, cumulative = 9.78465131845e-06
DILUPBiCGStab:  Solving for omega, Initial residual = 0.00116414321599, Final residual = 5.57457920367e-05, No Iterations 1
linear solve omega 10238
bounding omega, min: -778.823293181 max: 828188.908044 average: 2796.8709816
DILUPBiCGStab:  Solving for k, Initial residual = 0.0253888016095, Final residual = 0.00115085363485, No Iterations 1
linear solve k 7990
ExecutionTime = 8.04 s  ClockTime = 25 s

Time = 3

DILUPBiCGStab:  Solving for Ux, Initial residual = 0.00856966435233, Final residual = 0.00059176408095, No Iterations 3
DILUPBiCGStab:  Solving for Uy, Initial residual = 0.156541915819, Final residual = 0.0154494657884, No Iterations 3
DILUPBiCGStab:  Solving for Uz, Initial residual = 0.115481730411, Final residual = 0.00838868174102, No Iterations 3
linear solve U 45872
DICPCG:  Solving for p, Initial residual = 0.0237647593272, Final residual = 0.000233086429855, No Iterations 112
linear solve p 122161
time step continuity errors : sum local = 0.000651376286059, global = -3.92505204705e-05, cumulative = -2.9465869152e-05
DILUPBiCGStab:  Solving for omega, Initial residual = 0.000664213526199, Final residual = 3.46218547819e-05, No Iterations 1
linear solve omega 10351
bounding omega, min: -1120.54046482 max: 831412.307196 average: 3039.61568286
DILUPBiCGStab:  Solving for k, Initial residual = 0.0115645585617, Final residual = 0.000546223311368, No Iterations 1
linear solve k 9599
ExecutionTime = 8.39 s  ClockTime = 26 s

Time = 4

DILUPBiCGStab:  Solving for Ux, Initial residual = 0.00587640134766, Final residual = 0.000265341708325, No Iterations 4
DILUPBiCGStab:  Solving for Uy, Initial residual = 0.118871991405, Final residual = 0.010754932985, No Iterations 3
DILUPBiCGStab:  Solving for Uz, Initial residual = 0.121545106202, Final residual = 0.00973959870226, No Iterations 3
linear solve U 46826
DICPCG:  Solving for p, Initial residual = 0.0221679711001, Final residual = 0.000221074525657, No Iterations 114
linear solve p 125862
time step continuity errors : sum local = 0.000600672334398, global = 4.07879974209e-05, cumulative = 1.13221282689e-05
DILUPBiCGStab:  Solving for omega, Initial residual = 0.000520951365037, Final residual = 2.88274926842e-05, No Iterations 1
linear solve omega 10856
bounding omega, min: -294.593064144 max: 833391.531489 average: 3269.40074313
DILUPBiCGStab:  Solving for k, Initial residual = 0.00744662376247, Final residual = 0.000358675181013, No Iterations 1
linear solve k 6663
ExecutionTime = 8.74 s  ClockTime = 26 s

Time = 5

DILUPBiCGStab:  Solving for Ux, Initial residual = 0.00450496076891, Final residual = 0.000226379974676, No Iterations 4
DILUPBiCGStab:  Solving for Uy, Initial residual = 0.0969757349855, Final residual = 0.00780000009319, No Iterations 3
DILUPBiCGStab:  Solving for Uz, Initial residual = 0.10056644302, Final residual = 0.00780420942167, No Iterations 3
linear solve U 44600
DICPCG:  Solving for p, Initial residual = 0.0211240264154, Final residual = 0.00020882045651, No Iterations 112
linear solve p 122382
time step continuity errors : sum local = 0.000552168194484, global = 6.68180952031e-05, cumulative = 7.8140223472e-05
DILUPBiCGStab:  Solving for omega, Initial residual = 0.000477702970998, Final residual = 2.77573327584e-05, No Iterations 1
linear solve omega 8422
bounding omega, min: -137.435719325 max: 834489.568731 average: 3471.0890224
DILUPBiCGStab:  Solving for k, Initial residual = 0.00554035011772, Final residual = 0.000270349600247, No Iterations 1
linear solve k 7445
ExecutionTime = 9.08 s  ClockTime = 26 s

Time = 6

DILUPBiCGStab:  Solving for Ux, Initial residual = 0.00357269629085, Final residual = 0.000186839937832, No Iterations 4
DILUPBiCGStab:  Solving for Uy, Initial residual = 0.0839310276813, Final residual = 0.00366129114172, No Iterations 4
DILUPBiCGStab:  Solving for Uz, Initial residual = 0.0667188998057, Final residual = 0.00486058129318, No Iterations 3
linear solve U 58112
DICPCG:  Solving for p, Initial residual = 0.0197148406245, Final residual = 0.000196289429793, No Iterations 98
linear solve p 109507
time step continuity errors : sum local = 0.00051992456228, global = 8.70026157419e-05, cumulative = 0.000165142839214
DILUPBiCGStab:  Solving for omega, Initial residual = 0.000444147953104, Final residual = 2.61443929914e-05, No Iterations 1
linear solve omega 9818
bounding omega, min: -115.603650288 max: 835194.14878 average: 3647.45905677
DILUPBiCGStab:  Solving for k, Initial residual = 0.00447198091728, Final residual = 0.000221290972338, No Iterations 1
linear solve k 7262
ExecutionTime = 9.42 s  ClockTime = 27 s

Time = 7

DILUPBiCGStab:  Solving for Ux, Initial residual = 0.00296396587958, Final residual = 0.000274156039755, No Iterations 3
DILUPBiCGStab:  Solving for Uy, Initial residual = 0.0755110277004, Final residual = 0.00340104064654, No Iterations 4
DILUPBiCGStab:  Solving for Uz, Initial residual = 0.0498504203963, Final residual = 0.00421213012405, No Iterations 3
linear solve U 51930
DICPCG:  Solving for p, Initial residual = 0.0186960716113, Final residual = 0.000186873919952, No Iterations 110
linear solve p 146612
time step continuity errors : sum local = 0.000496300961362, global = 0.000107623675062, cumulative = 0.000272766514276
DILUPBiCGStab:  Solving for omega, Initial residual = 0.000417029005747, Final residual = 2.41027179041e-05, No Iterations 1
linear solve omega 8812
bounding omega, min: -64.613943442 max: 835664.046 average: 3800.29892903
DILUPBiCGStab:  Solving for k, Initial residual = 0.00379587238453, Final residual = 0.000191118897999, No Iterations 1
linear solve k 8239
ExecutionTime = 9.8 s  ClockTime = 27 s

Time = 8

DILUPBiCGStab:  Solving for Ux, Initial residual = 0.00254983691665, Final residual = 0.000208539114673, No Iterations 3
DILUPBiCGStab:  Solving for Uy, Initial residual = 0.0682666178156, Final residual = 0.00310212185708, No Iterations 4
DILUPBiCGStab:  Solving for Uz, Initial residual = 0.0406386283573, Final residual = 0.00336172815101, No Iterations 3
linear solve U 50934
DICPCG:  Solving for p, Initial residual = 0.0171464427539, Final residual = 0.000170863661831, No Iterations 109
linear solve p 131134
time step continuity errors : sum local = 0.00047191083101, global = 8.16079468192e-05, cumulative = 0.000354374461095
DILUPBiCGStab:  Solving for omega, Initial residual = 0.000385768799147, Final residual = 2.15311285128e-05, No Iterations 1
linear solve omega 8641
bounding omega, min: -22.8810676262 max: 835849.043578 average: 3932.45861371
DILUPBiCGStab:  Solving for k, Initial residual = 0.0033193034918, Final residual = 0.000171403502334, No Iterations 1
linear solve k 8004
ExecutionTime = 10.15 s  ClockTime = 27 s

Time = 9

DILUPBiCGStab:  Solving for Ux, Initial residual = 0.00225649258362, Final residual = 0.000170423730078, No Iterations 3
DILUPBiCGStab:  Solving for Uy, Initial residual = 0.0624890159012, Final residual = 0.00590876824192, No Iterations 3
DILUPBiCGStab:  Solving for Uz, Initial residual = 0.0343024856969, Final residual = 0.00258291993018, No Iterations 3
linear solve U 43544
DICPCG:  Solving for p, Initial residual = 0.0164201940308, Final residual = 0.000161709275353, No Iterations 110
linear solve p 118785
time step continuity errors : sum local = 0.000455433343116, global = 7.3195608708e-05, cumulative = 0.000427570069803
DILUPBiCGStab:  Solving for omega, Initial residual = 0.000361686021796, Final residual = 1.96278356553e-05, No Iterations 1
linear solve omega 8606
bounding omega, min: -620.789845585 max: 835808.913233 average: 4046.03054545
DILUPBiCGStab:  Solving for k, Initial residual = 0.00298578303226, Final residual = 0.000154853825491, No Iterations 1
linear solve k 7840
ExecutionTime = 10.5 s  ClockTime = 28 s

Time = 10

DILUPBiCGStab:  Solving for Ux, Initial residual = 0.00205225907322, Final residual = 0.000151999738455, No Iterations 3
DILUPBiCGStab:  Solving for Uy, Initial residual = 0.0589752615383, Final residual = 0.0051981102414, No Iterations 3
DILUPBiCGStab:  Solving for Uz, Initial residual = 0.0306710753852, Final residual = 0.00285303277638, No Iterations 3
linear solve U 46158
DICPCG:  Solving for p, Initial residual = 0.0157139771487, Final residual = 0.000156239403161, No Iterations 97
linear solve p 101823
time step continuity errors : sum local = 0.000447507120788, global = 6.4149562649e-05, cumulative = 0.000491719632452
DILUPBiCGStab:  Solving for omega, Initial residual = 0.000336882005276, Final residual = 1.73515735103e-05, No Iterations 1
linear solve omega 8518
bounding omega, min: -29.2871077109 max: 835653.116647 average: 4142.61503127
DILUPBiCGStab:  Solving for k, Initial residual = 0.00273765321825, Final residual = 0.000143074803517, No Iterations 1
linear solve k 7707
ExecutionTime = 10.82 s  ClockTime = 28 s

Time = 11

DILUPBiCGStab:  Solving for Ux, Initial residual = 0.00189642651279, Final residual = 2.98646594229e-05, No Iterations 5
DILUPBiCGStab:  Solving for Uy, Initial residual = 0.0564464353672, Final residual = 0.00525500261628, No Iterations 3
DILUPBiCGStab:  Solving for Uz, Initial residual = 0.0283517548091, Final residual = 0.000350551472505, No Iterations 5
linear solve U 53586
DICPCG:  Solving for p, Initial residual = 0.0153506230506, Final residual = 0.000152163829937, No Iterations 121
linear solve p 129134
time step continuity errors : sum local = 0.00043762459956, global = 4.07261385128e-05, cumulative = 0.000532445770965
DILUPBiCGStab:  Solving for omega, Initial residual = 0.000314646361815, Final residual = 1.58329027027e-05, No Iterations 1
linear solve omega 7418
bounding omega, min: -24.6360324824 max: 835396.563205 average: 4223.79340781
DILUPBiCGStab:  Solving for k, Initial residual = 0.00255861752441, Final residual = 0.000133390696163, No Iterations 1
linear solve k 7031
ExecutionTime = 11.17 s  ClockTime = 28 s

Time = 12

DILUPBiCGStab:  Solving for Ux, Initial residual = 0.00178032413958, Final residual = 3.26945653231e-05, No Iterations 5
DILUPBiCGStab:  Solving for Uy, Initial residual = 0.0547110070828, Final residual = 0.00465623905051, No Iterations 3
DILUPBiCGStab:  Solving for Uz, Initial residual = 0.0266252650409, Final residual = 0.00202215319148, No Iterations 4
linear solve U 51448
DICPCG:  Solving for p, Initial residual = 0.0147200802736, Final residual = 0.000143386575022, No Iterations 81
linear solve p 85766
time step continuity errors : sum local = 0.000422083568963, global = 3.7284517941e-05, cumulative = 0.000569730288906
DILUPBiCGStab:  Solving for omega, Initial residual = 0.000294711866713, Final residual = 1.45630683087e-05, No Iterations 1
linear solve omega 9436
bounding omega, min: -7.22324617736 max: 835054.656737 average: 4290.27460966
DILUPBiCGStab:  Solving for k, Initial residual = 0.00242859839217, Final residual = 0.00012650353785, No Iterations 1
linear solve k 7001
ExecutionTime = 11.48 s  ClockTime = 29 s

Time = 13

DILUPBiCGStab:  Solving for Ux, Initial residual = 0.00167019626831, Final residual = 3.52404019549e-05, No Iterations 5
DILUPBiCGStab:  Solving for Uy, Initial residual = 0.053568046878, Final residual = 0.00522048579072, No Iterations 3
DILUPBiCGStab:  Solving for Uz, Initial residual = 0.0256396355447, Final residual = 0.00207625865784, No Iterations 4
linear solve U 54010
DICPCG:  Solving for p, Initial residual = 0.0145710318149, Final residual = 0.000143675209053, No Iterations 112
linear solve p 120615
time step continuity errors : sum local = 0.000419960808319, global = 3.58155490556e-05, cumulative = 0.000605545837961
DILUPBiCGStab:  Solving for omega, Initial residual = 0.000276542938314, Final residual = 1.36245481889e-05, No Iterations 1
linear solve omega 7635
DILUPBiCGStab:  Solving for k, Initial residual = 0.00233624531384, Final residual = 0.000120202566371, No Iterations 1
linear solve k 7331
ExecutionTime = 11.82 s  ClockTime = 29 s

Time = 14

DILUPBiCGStab:  Solving for Ux, Initial residual = 0.00158325428629, Final residual = 0.00012494522482, No Iterations 3
DILUPBiCGStab:  Solving for Uy, Initial residual = 0.052283903952, Final residual = 0.00449542415614, No Iterations 3
DILUPBiCGStab:  Solving for Uz, Initial residual = 0.0247776277558, Final residual = 0.00069879151007, No Iterations 5
linear solve U 50444
DICPCG:  Solving for p, Initial residual = 0.0143871422822, Final residual = 0.000142522478594, No Iterations 96
linear solve p 104621
time step continuity errors : sum local = 0.000420234754528, global = 4.00340656322e-05, cumulative = 0.000645579903594
DILUPBiCGStab:  Solving for omega, Initial residual = 0.000260146023155, Final residual = 1.26633229098e-05, No Iterations 1
linear solve omega 8350
bounding omega, min: -321.765880142 max: 834282.832444 average: 4386.37273266
DILUPBiCGStab:  Solving for k, Initial residual = 0.00227344105087, Final residual = 0.000114855714898, No Iterations 1
linear solve k 6795
ExecutionTime = 12.14 s  ClockTime = 29 s

Time = 15

DILUPBiCGStab:  Solving for Ux, Initial residual = 0.00151361859509, Final residual = 2.50357540419e-05, No Iterations 5
DILUPBiCGStab:  Solving for Uy, Initial residual = 0.0514064895711, Final residual = 0.0044809923792, No Iterations 3
DILUPBiCGStab:  Solving for Uz, Initial residual = 0.0239485376843, Final residual = 0.00155408421938, No Iterations 3
linear solve U 51608
DICPCG:  Solving for p, Initial residual = 0.0142616824654, Final residual = 0.00014227909021, No Iterations 99
linear solve p 109675
time step continuity errors : sum local = 0.000420864208467, global = 3.7890012516e-05, cumulative = 0.00068346991611
DILUPBiCGStab:  Solving for omega, Initial residual = 0.000246011407163, Final residual = 1.17669771164e-05, No Iterations 1
linear solve omega 8080
DILUPBiCGStab:  Solving for k, Initial residual = 0.0022356333876, Final residual = 0.000110896373868, No Iterations 1
linear solve k 7558
ExecutionTime = 12.48 s  ClockTime = 30 s

Time = 16

DILUPBiCGStab:  Solving for Ux, Initial residual = 0.00144684106824, Final residual = 0.000137351423447, No Iterations 3
DILUPBiCGStab:  Solving for Uy, Initial residual = 0.050355698564, Final residual = 0.00441152194068, No Iterations 3
DILUPBiCGStab:  Solving for Uz, Initial residual = 0.023631052398, Final residual = 0.00142536794659, No Iterations 4
linear solve U 46563
DICPCG:  Solving for p, Initial residual = 0.014168243958, Final residual = 0.000141398358784, No Iterations 102
linear solve p 111767
time step continuity errors : sum local = 0.000419278788365, global = 3.61353495309e-05, cumulative = 0.000719605265641
DILUPBiCGStab:  Solving for omega, Initial residual = 0.000232953480447, Final residual = 1.09945117715e-05, No Iterations 1
linear solve omega 8226
DILUPBiCGStab:  Solving for k, Initial residual = 0.00220458796243, Final residual = 0.00010711869254, No Iterations 1
linear solve k 8349
ExecutionTime = 12.82 s  ClockTime = 30 s

Time = 17

DILUPBiCGStab:  Solving for Ux, Initial residual = 0.00140266612779, Final residual = 9.01648333037e-05, No Iterations 3
DILUPBiCGStab:  Solving for Uy, Initial residual = 0.0490875809911, Final residual = 0.00312359300997, No Iterations 3
DILUPBiCGStab:  Solving for Uz, Initial residual = 0.0235257536795, Final residual = 0.00223890318339, No Iterations 3
linear solve U 45967
DICPCG:  Solving for p, Initial residual = 0.0140497565169, Final residual = 0.00013849821659, No Iterations 100
linear solve p 115278
time step continuity errors : sum local = 0.000413147194485, global = 3.3659998682e-05, cumulative = 0.000753265264323
DILUPBiCGStab:  Solving for omega, Initial residual = 0.000221465041305, Final residual = 1.03419246175e-05, No Iterations 1
linear solve omega 10455
DILUPBiCGStab:  Solving for k, Initial residual = 0.00217907378464, Final residual = 0.000104899629995, No Iterations 1
linear solve k 7397
ExecutionTime = 13.14 s  ClockTime = 30 s

Time = 18

DILUPBiCGStab:  Solving for Ux, Initial residual = 0.00135497409593, Final residual = 8.84976561164e-05, No Iterations 3
DILUPBiCGStab:  Solving for Uy, Initial residual = 0.0473822414573, Final residual = 0.00158389101873, No Iterations 4
DILUPBiCGStab:  Solving for Uz, Initial residual = 0.0238350023225, Final residual = 0.0021024285757, No Iterations 3
linear solve U 50925
DICPCG:  Solving for p, Initial residual = 0.0140302154248, Final residual = 0.000138926886588, No Iterations 97
linear solve p 112812
time step continuity errors : sum local = 0.000415819772298, global = 3.9977553449e-05, cumulative = 0.000793242817772
DILUPBiCGStab:  Solving for omega, Initial residual = 0.000211393072049, Final residual = 9.80659672978e-06, No Iterations 1
linear solve omega 8993
DILUPBiCGStab:  Solving for k, Initial residual = 0.00215076046217, Final residual = 0.000102544025331, No Iterations 1
linear solve k 8033
bounding k, min: -5.19991123624e-08 max: 47.9349377489 average: 0.685741615224
ExecutionTime = 13.48 s  ClockTime = 31 s

Time = 19

DILUPBiCGStab:  Solving for Ux, Initial residual = 0.00131146991326, Final residual = 9.26470767872e-05, No Iterations 3
DILUPBiCGStab:  Solving for Uy, Initial residual = 0.0455111179697, Final residual = 0.00389812995414, No Iterations 3
DILUPBiCGStab:  Solving for Uz, Initial residual = 0.0243406165529, Final residual = 0.000689657199421, No Iterations 4
linear solve U 47034
DICPCG:  Solving for p, Initial residual = 0.0137541249708, Final residual = 0.00013612181726, No Iterations 97
linear solve p 107725
time step continuity errors : sum local = 0.000410663022258, global = 2.7373563704e-05, cumulative = 0.000820616381476
DILUPBiCGStab:  Solving for omega, Initial residual = 0.000201801764814, Final residual = 9.22435356437e-06, No Iterations 1
linear solve omega 9386
DILUPBiCGStab:  Solving for k, Initial residual = 0.00212300360283, Final residual = 0.000101306967608, No Iterations 1
linear solve k 7545
ExecutionTime = 13.82 s  ClockTime = 31 s

Time = 20

DILUPBiCGStab:  Solving for Ux, Initial residual = 0.00127461784039, Final residual = 5.42663433866e-05, No Iterations 4
DILUPBiCGStab:  Solving for Uy, Initial residual = 0.0445866952744, Final residual = 0.00351909324917, No Iterations 3
DILUPBiCGStab:  Solving for Uz, Initial residual = 0.0245672168963, Final residual = 0.00242230938837, No Iterations 3
linear solve U 50448
DICPCG:  Solving for p, Initial residual = 0.0136291541849, Final residual = 0.000133988794722, No Iterations 100
linear solve p 113733
time step continuity errors : sum local = 0.00040637543235, global = 2.539601628e-05, cumulative = 0.000846012397756
DILUPBiCGStab:  Solving for omega, Initial residual = 0.000192891388187, Final residual = 8.76753678181e-06, No Iterations 1
linear solve omega 9190
DILUPBiCGStab:  Solving for k, Initial residual = 0.00209841061421, Final residual = 0.000100534943456, No Iterations 1
linear solve k 7181
bounding k, min: -2.88220517885e-08 max: 44.8322856434 average: 0.726489758728
ExecutionTime = 14.15 s  ClockTime = 31 s

End

Finalising parallel run
================================================================================
hash: 50e2446e88bc90debd8b263684680897
/*---------------------------------------------------------------------------*\
| =========                 |                                                 |
| \\      /  F ield         | OpenFOAM: The Open Source CFD Toolbox           |
|  \\    /   O peration     | Version:  2112                                  |
|   \\  /    A nd           | Website:  www.openfoam.com                      |
|    \\/     M anipulation  |                                                 |
\*---------------------------------------------------------------------------*/
Build  : d44c8318f0-20220111 OPENFOAM=2112 version=v2112
Arch   : "LSB;label=32;scalar=64"
Exec   : simpleFoam -parallel
Date   : May 04 2022
Time   : 16:56:50
Host   : hkn0849.localdomain
PID    : 1861956
I/O    : uncollated
Case   : /hkfs/work/workspace/scratch/eq4036-motorcycle/Variation_mesh/Small/Variation_matrix_solver/CG_DIC_DefaultOF/Variation_mpiRank_of/38/base
nProcs : 38
Hosts  :
(
    (hkn0849.localdomain 38)
)
Pstream initialized with:
    floatTransfer      : 0
    nProcsSimpleSum    : 0
    commsType          : nonBlocking
    polling iterations : 0
trapFpe: Floating point exception trapping enabled (FOAM_SIGFPE).
fileModificationChecking : Monitoring run-time modified files using timeStampMaster (fileModificationSkew 5, maxFileModificationPolls 20)
allowSystemOperations : Allowing user-supplied system call operations

// * * * * * * * * * * * * * * * * * * * * * * * * * * * * * * * * * * * * * //
Create time

Create mesh for time = 0


SIMPLE: no convergence criteria found. Calculations will run for 20 steps.

Reading field p

Reading field U

Reading/calculating face flux field phi

Selecting incompressible transport model Newtonian
Selecting turbulence model type RAS
Selecting RAS turbulence model kOmegaSST
Selecting patchDistMethod meshWave
RAS
{
    RASModel        kOmegaSST;
    turbulence      on;
    printCoeffs     on;
    alphaK1         0.85;
    alphaK2         1;
    alphaOmega1     0.5;
    alphaOmega2     0.856;
    gamma1          0.555555555556;
    gamma2          0.44;
    beta1           0.075;
    beta2           0.0828;
    betaStar        0.09;
    a1              0.31;
    b1              1;
    c1              10;
    F3              false;
    decayControl    false;
    kInf            0;
    omegaInf        0;
}

No MRF models present

No finite volume options present

Starting time loop

Time = 1

DILUPBiCGStab:  Solving for Ux, Initial residual = 0.0294031318466, Final residual = 0.00264125797053, No Iterations 3
DILUPBiCGStab:  Solving for Uy, Initial residual = 0.355535713677, Final residual = 0.0326212197273, No Iterations 3
DILUPBiCGStab:  Solving for Uz, Initial residual = 0.258375536679, Final residual = 0.0200191712738, No Iterations 2
linear solve U 495726
DICPCG:  Solving for p, Initial residual = 1, Final residual = 0.009896757676, No Iterations 139
linear solve p 2879319
time step continuity errors : sum local = 0.000848941513296, global = 3.12247965579e-05, cumulative = 3.12247965579e-05
DILUPBiCGStab:  Solving for omega, Initial residual = 0.00242235566647, Final residual = 5.90658754436e-05, No Iterations 1
linear solve omega 89249
bounding omega, min: -87535.630866 max: 824573.236573 average: 2487.22312677
DILUPBiCGStab:  Solving for k, Initial residual = 0.999999999917, Final residual = 0.0468023163115, No Iterations 1
linear solve k 82275
ExecutionTime = 8.46 s  ClockTime = 9 s

Time = 2

DILUPBiCGStab:  Solving for Ux, Initial residual = 0.0153827805511, Final residual = 0.00106651177941, No Iterations 3
DILUPBiCGStab:  Solving for Uy, Initial residual = 0.221448927183, Final residual = 0.0157535101668, No Iterations 3
DILUPBiCGStab:  Solving for Uz, Initial residual = 0.130676618894, Final residual = 0.0092254307366, No Iterations 3
linear solve U 515906
DICPCG:  Solving for p, Initial residual = 0.0290716525104, Final residual = 0.000284807786569, No Iterations 143
linear solve p 2982790
time step continuity errors : sum local = 0.000708275789057, global = -2.46778136585e-05, cumulative = 6.54698289937e-06
DILUPBiCGStab:  Solving for omega, Initial residual = 0.00116192779021, Final residual = 5.09982244625e-05, No Iterations 1
linear solve omega 88348
bounding omega, min: -211.973505111 max: 828201.853017 average: 2800.61463755
DILUPBiCGStab:  Solving for k, Initial residual = 0.0251979452407, Final residual = 0.00128904832517, No Iterations 1
linear solve k 81181
ExecutionTime = 13.65 s  ClockTime = 14 s

Time = 3

DILUPBiCGStab:  Solving for Ux, Initial residual = 0.00861477693916, Final residual = 0.000704959746197, No Iterations 3
DILUPBiCGStab:  Solving for Uy, Initial residual = 0.158572409107, Final residual = 0.0143490499565, No Iterations 3
DILUPBiCGStab:  Solving for Uz, Initial residual = 0.115388824052, Final residual = 0.00755926243783, No Iterations 3
linear solve U 491373
DICPCG:  Solving for p, Initial residual = 0.0239571829208, Final residual = 0.000238237379956, No Iterations 110
linear solve p 2257769
time step continuity errors : sum local = 0.000666594554832, global = -4.04019837663e-05, cumulative = -3.38550008669e-05
DILUPBiCGStab:  Solving for omega, Initial residual = 0.000664299557705, Final residual = 3.16105196582e-05, No Iterations 1
linear solve omega 88426
bounding omega, min: -990.454081172 max: 831422.358206 average: 3044.70538898
DILUPBiCGStab:  Solving for k, Initial residual = 0.0114820242627, Final residual = 0.000614462873445, No Iterations 1
linear solve k 82679
ExecutionTime = 18.08 s  ClockTime = 19 s

Time = 4

DILUPBiCGStab:  Solving for Ux, Initial residual = 0.005932748169, Final residual = 0.000496416751708, No Iterations 3
DILUPBiCGStab:  Solving for Uy, Initial residual = 0.119915356712, Final residual = 0.00957745949442, No Iterations 3
DILUPBiCGStab:  Solving for Uz, Initial residual = 0.121746392084, Final residual = 0.0118434104909, No Iterations 3
linear solve U 498409
DICPCG:  Solving for p, Initial residual = 0.0222146281133, Final residual = 0.000219231717399, No Iterations 110
linear solve p 2274245
time step continuity errors : sum local = 0.0005929405559, global = 4.46991125756e-05, cumulative = 1.08441117087e-05
DILUPBiCGStab:  Solving for omega, Initial residual = 0.000518246897052, Final residual = 2.70997108493e-05, No Iterations 1
linear solve omega 88940
bounding omega, min: -43.832130547 max: 833389.914414 average: 3275.11098802
DILUPBiCGStab:  Solving for k, Initial residual = 0.007387642022, Final residual = 0.000405556209333, No Iterations 1
linear solve k 81882
ExecutionTime = 22.54 s  ClockTime = 23 s

Time = 5

DILUPBiCGStab:  Solving for Ux, Initial residual = 0.00455381892621, Final residual = 0.000379860069486, No Iterations 3
DILUPBiCGStab:  Solving for Uy, Initial residual = 0.0971909868205, Final residual = 0.00760683460558, No Iterations 3
DILUPBiCGStab:  Solving for Uz, Initial residual = 0.101282844024, Final residual = 0.00355487773538, No Iterations 4
linear solve U 540110
DICPCG:  Solving for p, Initial residual = 0.0211222413937, Final residual = 0.000209566978819, No Iterations 108
linear solve p 2225003
time step continuity errors : sum local = 0.000552134183418, global = 7.38067527448e-05, cumulative = 8.46508644535e-05
DILUPBiCGStab:  Solving for omega, Initial residual = 0.000478131952618, Final residual = 2.4886670714e-05, No Iterations 1
linear solve omega 89456
bounding omega, min: -144.272640099 max: 834451.943754 average: 3478.93907746
DILUPBiCGStab:  Solving for k, Initial residual = 0.00549245805042, Final residual = 0.000304412635621, No Iterations 1
linear solve k 81271
ExecutionTime = 27 s  ClockTime = 28 s

Time = 6

DILUPBiCGStab:  Solving for Ux, Initial residual = 0.00363372466964, Final residual = 0.000319685019603, No Iterations 3
DILUPBiCGStab:  Solving for Uy, Initial residual = 0.0841807051881, Final residual = 0.00673990052196, No Iterations 3
DILUPBiCGStab:  Solving for Uz, Initial residual = 0.0666751167551, Final residual = 0.00469572985894, No Iterations 3
linear solve U 500534
DICPCG:  Solving for p, Initial residual = 0.0197462730956, Final residual = 0.000196942567623, No Iterations 95
linear solve p 1992962
time step continuity errors : sum local = 0.000521823963577, global = 8.55163996881e-05, cumulative = 0.000170167264142
DILUPBiCGStab:  Solving for omega, Initial residual = 0.000443715302476, Final residual = 2.30683335787e-05, No Iterations 1
linear solve omega 88978
bounding omega, min: -95.8045927886 max: 835110.03924 average: 3657.29251204
DILUPBiCGStab:  Solving for k, Initial residual = 0.00442584292952, Final residual = 0.000242936596364, No Iterations 1
linear solve k 81815
ExecutionTime = 31.18 s  ClockTime = 32 s

Time = 7

DILUPBiCGStab:  Solving for Ux, Initial residual = 0.00302026353543, Final residual = 0.000285409588823, No Iterations 3
DILUPBiCGStab:  Solving for Uy, Initial residual = 0.0759242566393, Final residual = 0.0064000402089, No Iterations 3
DILUPBiCGStab:  Solving for Uz, Initial residual = 0.0499833757003, Final residual = 0.00388879250226, No Iterations 3
linear solve U 491011
DICPCG:  Solving for p, Initial residual = 0.0185158125766, Final residual = 0.000180672043208, No Iterations 105
linear solve p 2178306
time step continuity errors : sum local = 0.000481132088072, global = 0.000100745823166, cumulative = 0.000270913087308
DILUPBiCGStab:  Solving for omega, Initial residual = 0.000415374461266, Final residual = 2.08127397999e-05, No Iterations 1
linear solve omega 89195
bounding omega, min: -24.3011457697 max: 835553.163646 average: 3812.41668275
DILUPBiCGStab:  Solving for k, Initial residual = 0.0037484013125, Final residual = 0.000200373624178, No Iterations 1
linear solve k 81256
ExecutionTime = 35.54 s  ClockTime = 37 s

Time = 8

DILUPBiCGStab:  Solving for Ux, Initial residual = 0.00259464248114, Final residual = 0.000181386018562, No Iterations 3
DILUPBiCGStab:  Solving for Uy, Initial residual = 0.0686875084014, Final residual = 0.00606318866594, No Iterations 3
DILUPBiCGStab:  Solving for Uz, Initial residual = 0.0409388186545, Final residual = 0.00364418479856, No Iterations 3
linear solve U 520369
DICPCG:  Solving for p, Initial residual = 0.0170772850807, Final residual = 0.000168566866047, No Iterations 105
linear solve p 2189324
time step continuity errors : sum local = 0.000463961625133, global = 7.86594821031e-05, cumulative = 0.000349572569411
DILUPBiCGStab:  Solving for omega, Initial residual = 0.000384656047357, Final residual = 1.89114182067e-05, No Iterations 1
linear solve omega 87892
bounding omega, min: -46.5989956393 max: 835786.03806 average: 3946.30085694
DILUPBiCGStab:  Solving for k, Initial residual = 0.00327387998012, Final residual = 0.000171547426583, No Iterations 1
linear solve k 82963
ExecutionTime = 39.95 s  ClockTime = 41 s

Time = 9

DILUPBiCGStab:  Solving for Ux, Initial residual = 0.00229048400524, Final residual = 0.000169992538964, No Iterations 3
DILUPBiCGStab:  Solving for Uy, Initial residual = 0.0633508446241, Final residual = 0.00578068142156, No Iterations 3
DILUPBiCGStab:  Solving for Uz, Initial residual = 0.0347865027581, Final residual = 0.00228472807442, No Iterations 3
linear solve U 543110
DICPCG:  Solving for p, Initial residual = 0.0162299705818, Final residual = 0.000160581239308, No Iterations 107
linear solve p 2257707
time step continuity errors : sum local = 0.000449618004468, global = 7.10556214462e-05, cumulative = 0.000420628190857
DILUPBiCGStab:  Solving for omega, Initial residual = 0.000360149352916, Final residual = 1.72823763742e-05, No Iterations 1
linear solve omega 88606
bounding omega, min: -121.460344584 max: 835821.828472 average: 4060.25460172
DILUPBiCGStab:  Solving for k, Initial residual = 0.00294299235077, Final residual = 0.000151538807435, No Iterations 1
linear solve k 83482
ExecutionTime = 44.44 s  ClockTime = 45 s

Time = 10

DILUPBiCGStab:  Solving for Ux, Initial residual = 0.00207513925848, Final residual = 0.000173915361258, No Iterations 3
DILUPBiCGStab:  Solving for Uy, Initial residual = 0.0598615572963, Final residual = 0.00554632270665, No Iterations 3
DILUPBiCGStab:  Solving for Uz, Initial residual = 0.0309895420286, Final residual = 0.00248526598183, No Iterations 3
linear solve U 541842
DICPCG:  Solving for p, Initial residual = 0.0156438761766, Final residual = 0.00015617724196, No Iterations 94
linear solve p 1914230
time step continuity errors : sum local = 0.000444710190349, global = 6.4972466541e-05, cumulative = 0.000485600657398
DILUPBiCGStab:  Solving for omega, Initial residual = 0.00033540666042, Final residual = 1.54758831375e-05, No Iterations 1
linear solve omega 90243
bounding omega, min: -39.5805168839 max: 835687.167815 average: 4156.5941495
DILUPBiCGStab:  Solving for k, Initial residual = 0.0027005303679, Final residual = 0.00013615680758, No Iterations 1
linear solve k 84457
ExecutionTime = 48.58 s  ClockTime = 50 s

Time = 11

DILUPBiCGStab:  Solving for Ux, Initial residual = 0.0019191776425, Final residual = 0.000111878213644, No Iterations 4
DILUPBiCGStab:  Solving for Uy, Initial residual = 0.0572333224043, Final residual = 0.00528465543724, No Iterations 3
DILUPBiCGStab:  Solving for Uz, Initial residual = 0.0286896556143, Final residual = 0.000769989010729, No Iterations 4
linear solve U 593332
DICPCG:  Solving for p, Initial residual = 0.0152579901869, Final residual = 0.0001514461914, No Iterations 114
linear solve p 2363511
time step continuity errors : sum local = 0.000433889811395, global = 4.81005771029e-05, cumulative = 0.000533701234501
DILUPBiCGStab:  Solving for omega, Initial residual = 0.000312757362264, Final residual = 1.44992233306e-05, No Iterations 1
linear solve omega 91386
bounding omega, min: -23.0284483157 max: 835431.863269 average: 4237.08140975
DILUPBiCGStab:  Solving for k, Initial residual = 0.00252299291738, Final residual = 0.000123299728851, No Iterations 1
linear solve k 82529
ExecutionTime = 53.24 s  ClockTime = 54 s

Time = 12

DILUPBiCGStab:  Solving for Ux, Initial residual = 0.00179868744408, Final residual = 0.000145420516321, No Iterations 4
DILUPBiCGStab:  Solving for Uy, Initial residual = 0.0550972287891, Final residual = 0.00512630979856, No Iterations 3
DILUPBiCGStab:  Solving for Uz, Initial residual = 0.0268645243338, Final residual = 0.000314080010162, No Iterations 5
linear solve U 643438
DICPCG:  Solving for p, Initial residual = 0.0146267604169, Final residual = 0.000146076057998, No Iterations 78
linear solve p 1614864
time step continuity errors : sum local = 0.000428842415644, global = 4.0488062068e-05, cumulative = 0.000574189296569
DILUPBiCGStab:  Solving for omega, Initial residual = 0.000293004814669, Final residual = 1.30998922512e-05, No Iterations 1
linear solve omega 88101
bounding omega, min: -9.21303062868 max: 835110.652085 average: 4303.51826154
DILUPBiCGStab:  Solving for k, Initial residual = 0.00239392783708, Final residual = 0.000114466101141, No Iterations 1
linear solve k 81961
ExecutionTime = 57.19 s  ClockTime = 58 s

Time = 13

DILUPBiCGStab:  Solving for Ux, Initial residual = 0.00169200691753, Final residual = 0.000148248046582, No Iterations 3
DILUPBiCGStab:  Solving for Uy, Initial residual = 0.053615225858, Final residual = 0.00384833061819, No Iterations 3
DILUPBiCGStab:  Solving for Uz, Initial residual = 0.0254711252049, Final residual = 0.00183372260913, No Iterations 4
linear solve U 589753
DICPCG:  Solving for p, Initial residual = 0.0144945932765, Final residual = 0.000142917893364, No Iterations 109
linear solve p 2277730
time step continuity errors : sum local = 0.000417554118364, global = 3.49361056267e-05, cumulative = 0.000609125402195
DILUPBiCGStab:  Solving for omega, Initial residual = 0.000275685146607, Final residual = 1.21981707378e-05, No Iterations 1
linear solve omega 88943
DILUPBiCGStab:  Solving for k, Initial residual = 0.00230237876609, Final residual = 0.000106131386643, No Iterations 1
linear solve k 81632
ExecutionTime = 61.72 s  ClockTime = 63 s

Time = 14

DILUPBiCGStab:  Solving for Ux, Initial residual = 0.00162016431538, Final residual = 7.05174455025e-05, No Iterations 4
DILUPBiCGStab:  Solving for Uy, Initial residual = 0.0527014806421, Final residual = 0.00362951044106, No Iterations 3
DILUPBiCGStab:  Solving for Uz, Initial residual = 0.0248867570825, Final residual = 0.00198505404779, No Iterations 3
linear solve U 567077
DICPCG:  Solving for p, Initial residual = 0.0142162301736, Final residual = 0.00014131738328, No Iterations 88
linear solve p 1820629
time step continuity errors : sum local = 0.000416073309856, global = 4.18654982184e-05, cumulative = 0.000650990900414
DILUPBiCGStab:  Solving for omega, Initial residual = 0.00025889663681, Final residual = 1.11472354314e-05, No Iterations 1
linear solve omega 88581
DILUPBiCGStab:  Solving for k, Initial residual = 0.00223483274108, Final residual = 9.89805873638e-05, No Iterations 1
linear solve k 82888
ExecutionTime = 65.77 s  ClockTime = 67 s

Time = 15

DILUPBiCGStab:  Solving for Ux, Initial residual = 0.00152450455724, Final residual = 0.000115002942864, No Iterations 3
DILUPBiCGStab:  Solving for Uy, Initial residual = 0.0511707509238, Final residual = 0.00440587610803, No Iterations 3
DILUPBiCGStab:  Solving for Uz, Initial residual = 0.0241205624708, Final residual = 0.00143144722402, No Iterations 4
linear solve U 568602
DICPCG:  Solving for p, Initial residual = 0.0140967121503, Final residual = 0.000139380462424, No Iterations 93
linear solve p 1924917
time step continuity errors : sum local = 0.000411805148145, global = 4.15189126126e-05, cumulative = 0.000692509813026
DILUPBiCGStab:  Solving for omega, Initial residual = 0.000244542403869, Final residual = 1.05074095295e-05, No Iterations 1
linear solve omega 89864
DILUPBiCGStab:  Solving for k, Initial residual = 0.00219385407967, Final residual = 9.37292554949e-05, No Iterations 1
linear solve k 82654
ExecutionTime = 69.93 s  ClockTime = 71 s

Time = 16

DILUPBiCGStab:  Solving for Ux, Initial residual = 0.00147017691969, Final residual = 5.43633354121e-05, No Iterations 4
DILUPBiCGStab:  Solving for Uy, Initial residual = 0.0502523209, Final residual = 0.00324332829665, No Iterations 3
DILUPBiCGStab:  Solving for Uz, Initial residual = 0.0237938606734, Final residual = 0.00146697823131, No Iterations 3
linear solve U 587010
DICPCG:  Solving for p, Initial residual = 0.0140269949717, Final residual = 0.000138852078901, No Iterations 99
linear solve p 2063354
time step continuity errors : sum local = 0.000411412215082, global = 3.47532005853e-05, cumulative = 0.000727263013612
DILUPBiCGStab:  Solving for omega, Initial residual = 0.000231416780944, Final residual = 9.6318235664e-06, No Iterations 1
linear solve omega 89491
DILUPBiCGStab:  Solving for k, Initial residual = 0.00215800658232, Final residual = 8.93140961844e-05, No Iterations 1
linear solve k 84523
ExecutionTime = 74.25 s  ClockTime = 75 s

Time = 17

DILUPBiCGStab:  Solving for Ux, Initial residual = 0.00141076379564, Final residual = 0.000103194648466, No Iterations 3
DILUPBiCGStab:  Solving for Uy, Initial residual = 0.049008681051, Final residual = 0.00427358396572, No Iterations 3
DILUPBiCGStab:  Solving for Uz, Initial residual = 0.0236916504193, Final residual = 0.00204592718836, No Iterations 3
linear solve U 496984
DICPCG:  Solving for p, Initial residual = 0.0138759430148, Final residual = 0.000138407180276, No Iterations 98
linear solve p 2072054
time step continuity errors : sum local = 0.000412312447145, global = 3.12975049293e-05, cumulative = 0.000758560518541
DILUPBiCGStab:  Solving for omega, Initial residual = 0.0002200702436, Final residual = 9.04350943892e-06, No Iterations 1
linear solve omega 88756
DILUPBiCGStab:  Solving for k, Initial residual = 0.00213186596077, Final residual = 8.57875340934e-05, No Iterations 1
linear solve k 80871
ExecutionTime = 78.47 s  ClockTime = 80 s

Time = 18

DILUPBiCGStab:  Solving for Ux, Initial residual = 0.00136595213665, Final residual = 1.59792990154e-05, No Iterations 5
DILUPBiCGStab:  Solving for Uy, Initial residual = 0.0477127515242, Final residual = 0.00307860659971, No Iterations 4
DILUPBiCGStab:  Solving for Uz, Initial residual = 0.0238625845862, Final residual = 0.000588586845631, No Iterations 4
linear solve U 696295
DICPCG:  Solving for p, Initial residual = 0.0138381372395, Final residual = 0.00013707009176, No Iterations 101
linear solve p 2136897
time step continuity errors : sum local = 0.000409359267348, global = 3.04869029665e-05, cumulative = 0.000789047421507
DILUPBiCGStab:  Solving for omega, Initial residual = 0.000209927941647, Final residual = 8.55330400797e-06, No Iterations 1
linear solve omega 88975
DILUPBiCGStab:  Solving for k, Initial residual = 0.00210384828204, Final residual = 8.34632200364e-05, No Iterations 1
linear solve k 81719
ExecutionTime = 82.97 s  ClockTime = 84 s

Time = 19

DILUPBiCGStab:  Solving for Ux, Initial residual = 0.00131424338099, Final residual = 0.00010605345843, No Iterations 3
DILUPBiCGStab:  Solving for Uy, Initial residual = 0.0462699348681, Final residual = 0.00402703015915, No Iterations 3
DILUPBiCGStab:  Solving for Uz, Initial residual = 0.0241356845021, Final residual = 0.00114611627176, No Iterations 4
linear solve U 541303
DICPCG:  Solving for p, Initial residual = 0.0136905375159, Final residual = 0.00013583851801, No Iterations 97
linear solve p 2022954
time step continuity errors : sum local = 0.000407625768635, global = 2.9659162942e-05, cumulative = 0.000818706584449
DILUPBiCGStab:  Solving for omega, Initial residual = 0.000200834065452, Final residual = 8.07941453068e-06, No Iterations 1
linear solve omega 88179
DILUPBiCGStab:  Solving for k, Initial residual = 0.00207779806289, Final residual = 8.19383134153e-05, No Iterations 1
linear solve k 82297
ExecutionTime = 87.2 s  ClockTime = 88 s

Time = 20

DILUPBiCGStab:  Solving for Ux, Initial residual = 0.00128019346357, Final residual = 8.94945500647e-05, No Iterations 3
DILUPBiCGStab:  Solving for Uy, Initial residual = 0.0448956243205, Final residual = 0.00365707898346, No Iterations 3
DILUPBiCGStab:  Solving for Uz, Initial residual = 0.0245806201073, Final residual = 0.000707812216893, No Iterations 4
linear solve U 567581
DICPCG:  Solving for p, Initial residual = 0.013548317003, Final residual = 0.000134379191608, No Iterations 96
linear solve p 2015625
time step continuity errors : sum local = 0.000405492761222, global = 2.6906283435e-05, cumulative = 0.000845612867884
DILUPBiCGStab:  Solving for omega, Initial residual = 0.000192379839287, Final residual = 7.65359169917e-06, No Iterations 1
linear solve omega 89213
DILUPBiCGStab:  Solving for k, Initial residual = 0.00205613705768, Final residual = 8.06285317824e-05, No Iterations 1
linear solve k 81645
ExecutionTime = 91.45 s  ClockTime = 93 s

End

Finalising parallel run
================================================================================
hash: 7419f97c93b92cd034df9b94d9bd57de
/*---------------------------------------------------------------------------*\
| =========                 |                                                 |
| \\      /  F ield         | OpenFOAM: The Open Source CFD Toolbox           |
|  \\    /   O peration     | Version:  2112                                  |
|   \\  /    A nd           | Website:  www.openfoam.com                      |
|    \\/     M anipulation  |                                                 |
\*---------------------------------------------------------------------------*/
Build  : d44c8318f0-20220111 OPENFOAM=2112 version=v2112
Arch   : "LSB;label=32;scalar=64"
Exec   : simpleFoam -parallel
Date   : May 04 2022
Time   : 17:00:22
Host   : hkn0317.localdomain
PID    : 1320152
I/O    : uncollated
Case   : /hkfs/work/workspace/scratch/eq4036-motorcycle/Variation_mesh/Small/Variation_matrix_solver/CG_DIC_DefaultOF/Variation_mpiRank_of/1216/base
nProcs : 1216
Hosts  :
(
    (hkn0317.localdomain 76)
    (hkn1009.localdomain 76)
    (hkn1010.localdomain 76)
    (hkn1011.localdomain 76)
    (hkn1012.localdomain 76)
    (hkn1013.localdomain 76)
    (hkn1014.localdomain 76)
    (hkn1015.localdomain 76)
    (hkn1016.localdomain 76)
    (hkn1017.localdomain 76)
    (hkn1018.localdomain 76)
    (hkn1020.localdomain 76)
    (hkn1021.localdomain 76)
    (hkn1022.localdomain 76)
    (hkn1023.localdomain 76)
    (hkn1024.localdomain 76)
)
Pstream initialized with:
    floatTransfer      : 0
    nProcsSimpleSum    : 0
    commsType          : nonBlocking
    polling iterations : 0
trapFpe: Floating point exception trapping enabled (FOAM_SIGFPE).
fileModificationChecking : Monitoring run-time modified files using timeStampMaster (fileModificationSkew 5, maxFileModificationPolls 20)
allowSystemOperations : Allowing user-supplied system call operations

// * * * * * * * * * * * * * * * * * * * * * * * * * * * * * * * * * * * * * //
Create time

Create mesh for time = 0


SIMPLE: no convergence criteria found. Calculations will run for 20 steps.

Reading field p

Reading field U

Reading/calculating face flux field phi

Selecting incompressible transport model Newtonian
Selecting turbulence model type RAS
Selecting RAS turbulence model kOmegaSST
Selecting patchDistMethod meshWave
RAS
{
    RASModel        kOmegaSST;
    turbulence      on;
    printCoeffs     on;
    alphaK1         0.85;
    alphaK2         1;
    alphaOmega1     0.5;
    alphaOmega2     0.856;
    gamma1          0.555555555556;
    gamma2          0.44;
    beta1           0.075;
    beta2           0.0828;
    betaStar        0.09;
    a1              0.31;
    b1              1;
    c1              10;
    F3              false;
    decayControl    false;
    kInf            0;
    omegaInf        0;
}

No MRF models present

No finite volume options present

Starting time loop

Time = 1

DILUPBiCGStab:  Solving for Ux, Initial residual = 0.0294031323081, Final residual = 0.00146429481515, No Iterations 4
DILUPBiCGStab:  Solving for Uy, Initial residual = 0.355535716328, Final residual = 0.0316992889885, No Iterations 3
DILUPBiCGStab:  Solving for Uz, Initial residual = 0.25837553951, Final residual = 0.0186478438783, No Iterations 3
linear solve U 30642
DICPCG:  Solving for p, Initial residual = 1, Final residual = 0.00981273959035, No Iterations 146
linear solve p 57351
time step continuity errors : sum local = 0.000801463234872, global = 1.90343561108e-05, cumulative = 1.90343561108e-05
DILUPBiCGStab:  Solving for omega, Initial residual = 0.00242425663482, Final residual = 7.19840342012e-05, No Iterations 1
linear solve omega 2956
bounding omega, min: -87555.9677163 max: 824573.236573 average: 2483.81687614
DILUPBiCGStab:  Solving for k, Initial residual = 0.999999999989, Final residual = 0.056647733565, No Iterations 1
linear solve k 4820
ExecutionTime = 3.81 s  ClockTime = 4 s

Time = 2

DILUPBiCGStab:  Solving for Ux, Initial residual = 0.0151402610787, Final residual = 0.00145417754964, No Iterations 3
DILUPBiCGStab:  Solving for Uy, Initial residual = 0.218324538153, Final residual = 0.0189587019625, No Iterations 3
DILUPBiCGStab:  Solving for Uz, Initial residual = 0.128444534098, Final residual = 0.0103753562888, No Iterations 3
linear solve U 17076
DICPCG:  Solving for p, Initial residual = 0.0297408444474, Final residual = 0.000293047726795, No Iterations 152
linear solve p 49612
time step continuity errors : sum local = 0.000701034367464, global = -2.98971020357e-05, cumulative = -1.08627459248e-05
DILUPBiCGStab:  Solving for omega, Initial residual = 0.00117093786826, Final residual = 6.18156972851e-05, No Iterations 1
linear solve omega 1704
bounding omega, min: -239.733674769 max: 828200.10685 average: 2796.51754448
DILUPBiCGStab:  Solving for k, Initial residual = 0.0252535919211, Final residual = 0.00156092936762, No Iterations 1
linear solve k 1264
ExecutionTime = 3.91 s  ClockTime = 5 s

Time = 3

DILUPBiCGStab:  Solving for Ux, Initial residual = 0.00858379112449, Final residual = 0.000841564943318, No Iterations 4
DILUPBiCGStab:  Solving for Uy, Initial residual = 0.156629132738, Final residual = 0.0114458664967, No Iterations 3
DILUPBiCGStab:  Solving for Uz, Initial residual = 0.113089234961, Final residual = 0.00950624160934, No Iterations 3
linear solve U 14190
DICPCG:  Solving for p, Initial residual = 0.0235654920456, Final residual = 0.000234013847941, No Iterations 120
linear solve p 31204
time step continuity errors : sum local = 0.000640921768717, global = -3.09568900974e-05, cumulative = -4.18196360223e-05
DILUPBiCGStab:  Solving for omega, Initial residual = 0.000666881554669, Final residual = 3.7699215293e-05, No Iterations 1
linear solve omega 6353
bounding omega, min: -838.263074295 max: 831399.596853 average: 3038.78981904
DILUPBiCGStab:  Solving for k, Initial residual = 0.0114790495111, Final residual = 0.000744100552585, No Iterations 1
linear solve k 4642
ExecutionTime = 4 s  ClockTime = 5 s

Time = 4

DILUPBiCGStab:  Solving for Ux, Initial residual = 0.00586170405788, Final residual = 0.000415270700649, No Iterations 3
DILUPBiCGStab:  Solving for Uy, Initial residual = 0.11680639981, Final residual = 0.010644806288, No Iterations 3
DILUPBiCGStab:  Solving for Uz, Initial residual = 0.11699536219, Final residual = 0.0116425062506, No Iterations 3
linear solve U 8593
DICPCG:  Solving for p, Initial residual = 0.021964377153, Final residual = 0.000218744630266, No Iterations 115
linear solve p 42140
time step continuity errors : sum local = 0.000585709084265, global = 4.09307095869e-05, cumulative = -8.88926435401e-07
DILUPBiCGStab:  Solving for omega, Initial residual = 0.000517795532562, Final residual = 3.26968037558e-05, No Iterations 1
linear solve omega 1914
bounding omega, min: -196.178911527 max: 833379.489401 average: 3268.93371351
DILUPBiCGStab:  Solving for k, Initial residual = 0.00737045630711, Final residual = 0.000488888315722, No Iterations 1
linear solve k 1308
ExecutionTime = 4.08 s  ClockTime = 5 s

Time = 5

DILUPBiCGStab:  Solving for Ux, Initial residual = 0.0044822381472, Final residual = 0.000320190086431, No Iterations 3
DILUPBiCGStab:  Solving for Uy, Initial residual = 0.0956251021112, Final residual = 0.00845837122516, No Iterations 3
DILUPBiCGStab:  Solving for Uz, Initial residual = 0.102332309355, Final residual = 0.00675016866783, No Iterations 3
linear solve U 11830
DICPCG:  Solving for p, Initial residual = 0.0208605539555, Final residual = 0.000204552158883, No Iterations 114
linear solve p 30970
time step continuity errors : sum local = 0.000535272278036, global = 7.60962761257e-05, cumulative = 7.52073496903e-05
DILUPBiCGStab:  Solving for omega, Initial residual = 0.000477616561811, Final residual = 3.07062300157e-05, No Iterations 1
linear solve omega 5646
bounding omega, min: -195.388949311 max: 834461.49362 average: 3472.18837154
DILUPBiCGStab:  Solving for k, Initial residual = 0.00547666041121, Final residual = 0.000366560511272, No Iterations 1
linear solve k 3238
ExecutionTime = 4.16 s  ClockTime = 5 s

Time = 6

DILUPBiCGStab:  Solving for Ux, Initial residual = 0.0035860401807, Final residual = 0.000233088385164, No Iterations 4
DILUPBiCGStab:  Solving for Uy, Initial residual = 0.0829533897937, Final residual = 0.00765978452102, No Iterations 3
DILUPBiCGStab:  Solving for Uz, Initial residual = 0.068365958148, Final residual = 0.00590410908649, No Iterations 3
linear solve U 12225
DICPCG:  Solving for p, Initial residual = 0.0196101194924, Final residual = 0.000192008123836, No Iterations 106
linear solve p 37810
time step continuity errors : sum local = 0.000505118889812, global = 9.7249928931e-05, cumulative = 0.000172457278621
DILUPBiCGStab:  Solving for omega, Initial residual = 0.0004454323042, Final residual = 3.10165769539e-05, No Iterations 1
linear solve omega 4675
bounding omega, min: -113.542940779 max: 835138.796353 average: 3648.59097444
DILUPBiCGStab:  Solving for k, Initial residual = 0.0044139524925, Final residual = 0.000295796009237, No Iterations 1
linear solve k 1551
ExecutionTime = 4.25 s  ClockTime = 5 s

Time = 7

DILUPBiCGStab:  Solving for Ux, Initial residual = 0.00298187637097, Final residual = 0.000210006886852, No Iterations 4
DILUPBiCGStab:  Solving for Uy, Initial residual = 0.0750724299238, Final residual = 0.00693643158019, No Iterations 3
DILUPBiCGStab:  Solving for Uz, Initial residual = 0.0511795595026, Final residual = 0.00440201140844, No Iterations 3
linear solve U 14671
DICPCG:  Solving for p, Initial residual = 0.018352450451, Final residual = 0.000183200377333, No Iterations 112
linear solve p 39606
time step continuity errors : sum local = 0.000487647738229, global = 0.000106113239212, cumulative = 0.000278570517833
DILUPBiCGStab:  Solving for omega, Initial residual = 0.000419277476692, Final residual = 2.72819140373e-05, No Iterations 1
linear solve omega 2005
bounding omega, min: -75.0988907063 max: 835614.538084 average: 3802.64572266
DILUPBiCGStab:  Solving for k, Initial residual = 0.00374392813257, Final residual = 0.000251139040893, No Iterations 1
linear solve k 1400
ExecutionTime = 4.33 s  ClockTime = 5 s

Time = 8

DILUPBiCGStab:  Solving for Ux, Initial residual = 0.00255933658165, Final residual = 0.000222467269738, No Iterations 4
DILUPBiCGStab:  Solving for Uy, Initial residual = 0.0682766147631, Final residual = 0.00654818269497, No Iterations 3
[...]
DILUPBiCGStab:  Solving for Uy, Initial residual = 0.0976309427122, Final residual = 0.00650055664777, No Iterations 3
DILUPBiCGStab:  Solving for Uz, Initial residual = 0.0509435661566, Final residual = 0.00289096924609, No Iterations 3
linear solve U 5115390
[OGL LOG][Proc: 0]global_index_init : 8 mu s
[OGL LOG][Proc: 0]global_index_init : 1 mu s
[OGL LOG][Proc: 0]update_host_matrix_data : 121579 mu s
[OGL LOG][Proc: 0]gather_initGuess : 1 mu s
[OGL LOG][Proc: 0]gather_RHS : 0 mu s
[OGL LOG][Proc: 0]gather_global_matrix : 0 mu s
[OGL LOG][Proc: 0]init_precond : 603444 mu s
[OGL LOG][Proc: 0]generate_solver : 0 mu s
[OGL LOG][Proc: 0]solve : 1325524 mu s
MultigridcudaGKOCG:  Solving for p, Initial residual = 1, Final residual = 0.00925847453786, No Iterations 35
linear solve p 4336657
time step continuity errors : sum local = 0.00219580940483, global = 0.000392293547573, cumulative = 0.00203538038538
DILUPBiCGStab:  Solving for omega, Initial residual = 0.000414936546038, Final residual = 1.9339840887e-05, No Iterations 1
linear solve omega 689094
bounding omega, min: -73.5968741991 max: 835523.764419 average: 3806.34497229
DILUPBiCGStab:  Solving for k, Initial residual = 0.00379115707615, Final residual = 0.000156963692307, No Iterations 1
linear solve k 786892
ExecutionTime = 253.95 s  ClockTime = 257 s

Time = 8

DILUPBiCGStab:  Solving for Ux, Initial residual = 0.00258042937717, Final residual = 0.000173883170388, No Iterations 3
DILUPBiCGStab:  Solving for Uy, Initial residual = 0.0896536817337, Final residual = 0.00602948458157, No Iterations 3
DILUPBiCGStab:  Solving for Uz, Initial residual = 0.0410738710273, Final residual = 0.00322909926636, No Iterations 3
linear solve U 5149669
[OGL LOG][Proc: 0]global_index_init : 14 mu s
[OGL LOG][Proc: 0]global_index_init : 1 mu s
[OGL LOG][Proc: 0]update_host_matrix_data : 122134 mu s
[OGL LOG][Proc: 0]gather_initGuess : 1 mu s
[OGL LOG][Proc: 0]gather_RHS : 0 mu s
[OGL LOG][Proc: 0]gather_global_matrix : 0 mu s
[OGL LOG][Proc: 0]init_precond : 601303 mu s
[OGL LOG][Proc: 0]generate_solver : 0 mu s
[OGL LOG][Proc: 0]solve : 1405836 mu s
MultigridcudaGKOCG:  Solving for p, Initial residual = 1, Final residual = 0.00907670539695, No Iterations 35
linear solve p 4403347
time step continuity errors : sum local = 0.00221899105238, global = 0.000428303725508, cumulative = 0.00246368411089
DILUPBiCGStab:  Solving for omega, Initial residual = 0.000385081798257, Final residual = 1.74184358229e-05, No Iterations 1
linear solve omega 687482
bounding omega, min: -62.3254466449 max: 835724.415083 average: 3938.64656061
DILUPBiCGStab:  Solving for k, Initial residual = 0.0033190232849, Final residual = 0.000132341453279, No Iterations 1
linear solve k 787221
ExecutionTime = 277.2 s  ClockTime = 281 s

Time = 9

DILUPBiCGStab:  Solving for Ux, Initial residual = 0.00228077177769, Final residual = 0.000202659527296, No Iterations 3
DILUPBiCGStab:  Solving for Uy, Initial residual = 0.0832953776471, Final residual = 0.00561487748535, No Iterations 3
DILUPBiCGStab:  Solving for Uz, Initial residual = 0.0347756064311, Final residual = 0.00195257117373, No Iterations 3
linear solve U 4812962
[OGL LOG][Proc: 0]global_index_init : 8 mu s
[OGL LOG][Proc: 0]global_index_init : 1 mu s
[OGL LOG][Proc: 0]update_host_matrix_data : 121336 mu s
[OGL LOG][Proc: 0]gather_initGuess : 1 mu s
[OGL LOG][Proc: 0]gather_RHS : 0 mu s
[OGL LOG][Proc: 0]gather_global_matrix : 0 mu s
[OGL LOG][Proc: 0]init_precond : 597176 mu s
[OGL LOG][Proc: 0]generate_solver : 0 mu s
[OGL LOG][Proc: 0]solve : 1285896 mu s
MultigridcudaGKOCG:  Solving for p, Initial residual = 1, Final residual = 0.00970723162698, No Iterations 34
linear solve p 4289891
time step continuity errors : sum local = 0.00244383082515, global = 0.000509021388836, cumulative = 0.00297270549972
DILUPBiCGStab:  Solving for omega, Initial residual = 0.000363248693749, Final residual = 1.72819620269e-05, No Iterations 1
linear solve omega 689309
bounding omega, min: -678.616497353 max: 835754.699251 average: 4050.76331026
DILUPBiCGStab:  Solving for k, Initial residual = 0.00298999226802, Final residual = 0.000116942927113, No Iterations 1
linear solve k 787224
ExecutionTime = 300.06 s  ClockTime = 304 s

Time = 10

DILUPBiCGStab:  Solving for Ux, Initial residual = 0.00210218627769, Final residual = 0.00013678778701, No Iterations 3
DILUPBiCGStab:  Solving for Uy, Initial residual = 0.0801588572885, Final residual = 0.00540874437437, No Iterations 3
DILUPBiCGStab:  Solving for Uz, Initial residual = 0.031326084231, Final residual = 0.000224177924294, No Iterations 5
linear solve U 5881206
[OGL LOG][Proc: 0]global_index_init : 19 mu s
[OGL LOG][Proc: 0]global_index_init : 1 mu s
[OGL LOG][Proc: 0]update_host_matrix_data : 121746 mu s
[OGL LOG][Proc: 0]gather_initGuess : 1 mu s
[OGL LOG][Proc: 0]gather_RHS : 1 mu s
[OGL LOG][Proc: 0]gather_global_matrix : 0 mu s
[OGL LOG][Proc: 0]init_precond : 608044 mu s
[OGL LOG][Proc: 0]generate_solver : 0 mu s
[OGL LOG][Proc: 0]solve : 1290704 mu s
MultigridcudaGKOCG:  Solving for p, Initial residual = 1, Final residual = 0.00971935856502, No Iterations 34
linear solve p 4292102
time step continuity errors : sum local = 0.0025134575652, global = 0.000537995858406, cumulative = 0.00351070135813
DILUPBiCGStab:  Solving for omega, Initial residual = 0.000338016534597, Final residual = 1.44412491491e-05, No Iterations 1
linear solve omega 774227
bounding omega, min: -36.3164731917 max: 835604.394873 average: 4145.3217861
DILUPBiCGStab:  Solving for k, Initial residual = 0.00274455822533, Final residual = 0.000106584806236, No Iterations 1
linear solve k 787130
ExecutionTime = 324.12 s  ClockTime = 328 s

Time = 11

DILUPBiCGStab:  Solving for Ux, Initial residual = 0.00193249879675, Final residual = 0.000136185480778, No Iterations 3
DILUPBiCGStab:  Solving for Uy, Initial residual = 0.0755699936721, Final residual = 0.00504987212846, No Iterations 3
DILUPBiCGStab:  Solving for Uz, Initial residual = 0.0286225133629, Final residual = 0.00159657208056, No Iterations 3
linear solve U 4798153
[OGL LOG][Proc: 0]global_index_init : 8 mu s
[OGL LOG][Proc: 0]global_index_init : 1 mu s
[OGL LOG][Proc: 0]update_host_matrix_data : 122189 mu s
[OGL LOG][Proc: 0]gather_initGuess : 1 mu s
[OGL LOG][Proc: 0]gather_RHS : 0 mu s
[OGL LOG][Proc: 0]gather_global_matrix : 0 mu s
[OGL LOG][Proc: 0]init_precond : 604316 mu s
[OGL LOG][Proc: 0]generate_solver : 0 mu s
[OGL LOG][Proc: 0]solve : 1292627 mu s
MultigridcudaGKOCG:  Solving for p, Initial residual = 1, Final residual = 0.00975670702656, No Iterations 34
linear solve p 4305056
time step continuity errors : sum local = 0.00258772841653, global = 0.000560348967187, cumulative = 0.00407105032531
DILUPBiCGStab:  Solving for omega, Initial residual = 0.000314844461739, Final residual = 1.28354272065e-05, No Iterations 1
linear solve omega 688491
bounding omega, min: -21.8676821339 max: 835360.975381 average: 4225.08607057
DILUPBiCGStab:  Solving for k, Initial residual = 0.00256579302063, Final residual = 9.82162478988e-05, No Iterations 1
linear solve k 785927
ExecutionTime = 347.03 s  ClockTime = 351 s

Time = 12

DILUPBiCGStab:  Solving for Ux, Initial residual = 0.00180958651331, Final residual = 0.000131855466526, No Iterations 3
DILUPBiCGStab:  Solving for Uy, Initial residual = 0.0721724020603, Final residual = 0.00476632966964, No Iterations 3
DILUPBiCGStab:  Solving for Uz, Initial residual = 0.0272122733659, Final residual = 0.0022355527141, No Iterations 4
linear solve U 5674246
[OGL LOG][Proc: 0]global_index_init : 12 mu s
[OGL LOG][Proc: 0]global_index_init : 1 mu s
[OGL LOG][Proc: 0]update_host_matrix_data : 122187 mu s
[OGL LOG][Proc: 0]gather_initGuess : 1 mu s
[OGL LOG][Proc: 0]gather_RHS : 0 mu s
[OGL LOG][Proc: 0]gather_global_matrix : 0 mu s
[OGL LOG][Proc: 0]init_precond : 607285 mu s
[OGL LOG][Proc: 0]generate_solver : 0 mu s
[OGL LOG][Proc: 0]solve : 1233506 mu s
MultigridcudaGKOCG:  Solving for p, Initial residual = 1, Final residual = 0.0099246688175, No Iterations 33
linear solve p 4242989
time step continuity errors : sum local = 0.00269945697324, global = 0.000622349688988, cumulative = 0.0046934000143
DILUPBiCGStab:  Solving for omega, Initial residual = 0.00029562455163, Final residual = 1.19267450729e-05, No Iterations 1
linear solve omega 773697
bounding omega, min: -123.034441123 max: 835046.940071 average: 4290.7763066
DILUPBiCGStab:  Solving for k, Initial residual = 0.00244176069935, Final residual = 9.23242985099e-05, No Iterations 1
linear solve k 789111
ExecutionTime = 370.8 s  ClockTime = 375 s

Time = 13

DILUPBiCGStab:  Solving for Ux, Initial residual = 0.00172114219173, Final residual = 0.000125107223737, No Iterations 3
DILUPBiCGStab:  Solving for Uy, Initial residual = 0.069455495448, Final residual = 0.00451975155164, No Iterations 3
DILUPBiCGStab:  Solving for Uz, Initial residual = 0.025879330757, Final residual = 0.00155858457914, No Iterations 3
linear solve U 4799566
[OGL LOG][Proc: 0]global_index_init : 9 mu s
[OGL LOG][Proc: 0]global_index_init : 1 mu s
[OGL LOG][Proc: 0]update_host_matrix_data : 121196 mu s
[OGL LOG][Proc: 0]gather_initGuess : 1 mu s
[OGL LOG][Proc: 0]gather_RHS : 0 mu s
[OGL LOG][Proc: 0]gather_global_matrix : 0 mu s
[OGL LOG][Proc: 0]init_precond : 614322 mu s
[OGL LOG][Proc: 0]generate_solver : 0 mu s
[OGL LOG][Proc: 0]solve : 1239724 mu s
MultigridcudaGKOCG:  Solving for p, Initial residual = 1, Final residual = 0.00997903337026, No Iterations 33
linear solve p 4260155
time step continuity errors : sum local = 0.00278126491263, global = 0.000657721228986, cumulative = 0.00535112124329
DILUPBiCGStab:  Solving for omega, Initial residual = 0.000277088020847, Final residual = 1.1108311872e-05, No Iterations 1
linear solve omega 689304
DILUPBiCGStab:  Solving for k, Initial residual = 0.00234806045901, Final residual = 8.63507340209e-05, No Iterations 1
linear solve k 787889
ExecutionTime = 393.34 s  ClockTime = 398 s

Time = 14

DILUPBiCGStab:  Solving for Ux, Initial residual = 0.00163361740378, Final residual = 0.000118160215445, No Iterations 3
DILUPBiCGStab:  Solving for Uy, Initial residual = 0.0663795088577, Final residual = 0.00434561982579, No Iterations 3
DILUPBiCGStab:  Solving for Uz, Initial residual = 0.0249359723591, Final residual = 0.00149144649379, No Iterations 3
linear solve U 4819207
[OGL LOG][Proc: 0]global_index_init : 12 mu s
[OGL LOG][Proc: 0]global_index_init : 1 mu s
[OGL LOG][Proc: 0]update_host_matrix_data : 122027 mu s
[OGL LOG][Proc: 0]gather_initGuess : 1 mu s
[OGL LOG][Proc: 0]gather_RHS : 0 mu s
[OGL LOG][Proc: 0]gather_global_matrix : 0 mu s
[OGL LOG][Proc: 0]init_precond : 600879 mu s
[OGL LOG][Proc: 0]generate_solver : 0 mu s
[OGL LOG][Proc: 0]solve : 1259789 mu s
MultigridcudaGKOCG:  Solving for p, Initial residual = 1, Final residual = 0.00953605103659, No Iterations 33
linear solve p 4269917
time step continuity errors : sum local = 0.00271955151838, global = 0.000674914391926, cumulative = 0.00602603563521
DILUPBiCGStab:  Solving for omega, Initial residual = 0.000260353292055, Final residual = 1.02939730546e-05, No Iterations 1
linear solve omega 773434
DILUPBiCGStab:  Solving for k, Initial residual = 0.00228277016456, Final residual = 8.20519525315e-05, No Iterations 1
linear solve k 787475
ExecutionTime = 415.99 s  ClockTime = 421 s

Time = 15

DILUPBiCGStab:  Solving for Ux, Initial residual = 0.0015583289672, Final residual = 0.000114779922108, No Iterations 3
DILUPBiCGStab:  Solving for Uy, Initial residual = 0.0640457429326, Final residual = 0.00475120817849, No Iterations 3
DILUPBiCGStab:  Solving for Uz, Initial residual = 0.0244735647615, Final residual = 0.00137000483284, No Iterations 3
linear solve U 5120362
[OGL LOG][Proc: 0]global_index_init : 9 mu s
[OGL LOG][Proc: 0]global_index_init : 4 mu s
[OGL LOG][Proc: 0]update_host_matrix_data : 121268 mu s
[OGL LOG][Proc: 0]gather_initGuess : 1 mu s
[OGL LOG][Proc: 0]gather_RHS : 0 mu s
[OGL LOG][Proc: 0]gather_global_matrix : 0 mu s
[OGL LOG][Proc: 0]init_precond : 607845 mu s
[OGL LOG][Proc: 0]generate_solver : 0 mu s
[OGL LOG][Proc: 0]solve : 1223813 mu s
MultigridcudaGKOCG:  Solving for p, Initial residual = 1, Final residual = 0.00999146657524, No Iterations 32
linear solve p 4239312
time step continuity errors : sum local = 0.00290877890955, global = 0.000737143061303, cumulative = 0.00676317869652
DILUPBiCGStab:  Solving for omega, Initial residual = 0.000246239780007, Final residual = 9.58559928049e-06, No Iterations 1
linear solve omega 695093
bounding omega, min: -748.756359368 max: 833962.847867 average: 4421.58323472
DILUPBiCGStab:  Solving for k, Initial residual = 0.00224336692747, Final residual = 7.94186488557e-05, No Iterations 1
linear solve k 786925
ExecutionTime = 439.15 s  ClockTime = 444 s

Time = 16

DILUPBiCGStab:  Solving for Ux, Initial residual = 0.00150754357246, Final residual = 0.000105557596655, No Iterations 3
DILUPBiCGStab:  Solving for Uy, Initial residual = 0.0628213582392, Final residual = 0.00423949950109, No Iterations 3
DILUPBiCGStab:  Solving for Uz, Initial residual = 0.0242432144429, Final residual = 0.00241114092711, No Iterations 2
linear solve U 4616944
[OGL LOG][Proc: 0]global_index_init : 10 mu s
[OGL LOG][Proc: 0]global_index_init : 2 mu s
[OGL LOG][Proc: 0]update_host_matrix_data : 121986 mu s
[OGL LOG][Proc: 0]gather_initGuess : 1 mu s
[OGL LOG][Proc: 0]gather_RHS : 0 mu s
[OGL LOG][Proc: 0]gather_global_matrix : 0 mu s
[OGL LOG][Proc: 0]init_precond : 611759 mu s
[OGL LOG][Proc: 0]generate_solver : 0 mu s
[OGL LOG][Proc: 0]solve : 1214648 mu s
MultigridcudaGKOCG:  Solving for p, Initial residual = 1, Final residual = 0.00997049231997, No Iterations 32
linear solve p 4222955
time step continuity errors : sum local = 0.00295342875481, global = 0.000770781367862, cumulative = 0.00753396006438
DILUPBiCGStab:  Solving for omega, Initial residual = 0.000233042540742, Final residual = 8.90862774169e-06, No Iterations 1
linear solve omega 776363
bounding omega, min: -763.208133398 max: 833581.54577 average: 4449.69834578
DILUPBiCGStab:  Solving for k, Initial residual = 0.00220976153393, Final residual = 7.72943516041e-05, No Iterations 1
linear solve k 788015
ExecutionTime = 461.84 s  ClockTime = 467 s

Time = 17

DILUPBiCGStab:  Solving for Ux, Initial residual = 0.00144608380355, Final residual = 0.000105871283724, No Iterations 3
DILUPBiCGStab:  Solving for Uy, Initial residual = 0.0610811019235, Final residual = 0.0044893359925, No Iterations 3
DILUPBiCGStab:  Solving for Uz, Initial residual = 0.0243731540841, Final residual = 0.00223904356537, No Iterations 3
linear solve U 5118367
[OGL LOG][Proc: 0]global_index_init : 10 mu s
[OGL LOG][Proc: 0]global_index_init : 2 mu s
[OGL LOG][Proc: 0]update_host_matrix_data : 122105 mu s
[OGL LOG][Proc: 0]gather_initGuess : 1 mu s
[OGL LOG][Proc: 0]gather_RHS : 0 mu s
[OGL LOG][Proc: 0]gather_global_matrix : 0 mu s
[OGL LOG][Proc: 0]init_precond : 603481 mu s
[OGL LOG][Proc: 0]generate_solver : 0 mu s
[OGL LOG][Proc: 0]solve : 1205796 mu s
MultigridcudaGKOCG:  Solving for p, Initial residual = 1, Final residual = 0.00969422665167, No Iterations 32
linear solve p 4258083
time step continuity errors : sum local = 0.00291351174312, global = 0.000821645335218, cumulative = 0.0083556053996
DILUPBiCGStab:  Solving for omega, Initial residual = 0.00022123059145, Final residual = 8.42904365659e-06, No Iterations 1
linear solve omega 689940
DILUPBiCGStab:  Solving for k, Initial residual = 0.00218029350618, Final residual = 7.60261959472e-05, No Iterations 1
linear solve k 789083
ExecutionTime = 484.72 s  ClockTime = 490 s

Time = 18

DILUPBiCGStab:  Solving for Ux, Initial residual = 0.00139422070176, Final residual = 9.87575271484e-05, No Iterations 3
DILUPBiCGStab:  Solving for Uy, Initial residual = 0.0599740365053, Final residual = 0.000424794799758, No Iterations 5
DILUPBiCGStab:  Solving for Uz, Initial residual = 0.0247524306537, Final residual = 0.00234445973098, No Iterations 2
linear solve U 5679575
[OGL LOG][Proc: 0]global_index_init : 12 mu s
[OGL LOG][Proc: 0]global_index_init : 1 mu s
[OGL LOG][Proc: 0]update_host_matrix_data : 120261 mu s
[OGL LOG][Proc: 0]gather_initGuess : 1 mu s
[OGL LOG][Proc: 0]gather_RHS : 0 mu s
[OGL LOG][Proc: 0]gather_global_matrix : 0 mu s
[OGL LOG][Proc: 0]init_precond : 624387 mu s
[OGL LOG][Proc: 0]generate_solver : 0 mu s
[OGL LOG][Proc: 0]solve : 1213654 mu s
MultigridcudaGKOCG:  Solving for p, Initial residual = 1, Final residual = 0.00964548710612, No Iterations 32
linear solve p 4232978
time step continuity errors : sum local = 0.00293188419752, global = 0.000859528644095, cumulative = 0.00921513404369
DILUPBiCGStab:  Solving for omega, Initial residual = 0.000210821252213, Final residual = 7.88022555803e-06, No Iterations 1
linear solve omega 773414
DILUPBiCGStab:  Solving for k, Initial residual = 0.00214753998405, Final residual = 7.45032847055e-05, No Iterations 1
linear solve k 789155
ExecutionTime = 508.17 s  ClockTime = 514 s

Time = 19

DILUPBiCGStab:  Solving for Ux, Initial residual = 0.00135033850033, Final residual = 9.65147508121e-05, No Iterations 3
DILUPBiCGStab:  Solving for Uy, Initial residual = 0.0586387498485, Final residual = 0.00367163399754, No Iterations 3
DILUPBiCGStab:  Solving for Uz, Initial residual = 0.0254189247314, Final residual = 0.00176145509033, No Iterations 3
linear solve U 5118941
[OGL LOG][Proc: 0]global_index_init : 8 mu s
[OGL LOG][Proc: 0]global_index_init : 1 mu s
[OGL LOG][Proc: 0]update_host_matrix_data : 121228 mu s
[OGL LOG][Proc: 0]gather_initGuess : 1 mu s
[OGL LOG][Proc: 0]gather_RHS : 0 mu s
[OGL LOG][Proc: 0]gather_global_matrix : 0 mu s
[OGL LOG][Proc: 0]init_precond : 626546 mu s
[OGL LOG][Proc: 0]generate_solver : 0 mu s
[OGL LOG][Proc: 0]solve : 1161382 mu s
MultigridcudaGKOCG:  Solving for p, Initial residual = 1, Final residual = 0.00990713904127, No Iterations 31
linear solve p 4223046
time step continuity errors : sum local = 0.00303996389714, global = 0.000939053594042, cumulative = 0.0101541876377
DILUPBiCGStab:  Solving for omega, Initial residual = 0.000209304992964, Final residual = 7.58812210322e-06, No Iterations 1
linear solve omega 688830
DILUPBiCGStab:  Solving for k, Initial residual = 0.00212186251364, Final residual = 7.37742972005e-05, No Iterations 1
linear solve k 787261
ExecutionTime = 531.02 s  ClockTime = 537 s

Time = 20

DILUPBiCGStab:  Solving for Ux, Initial residual = 0.00244425911622, Final residual = 0.000224708064497, No Iterations 2
DILUPBiCGStab:  Solving for Uy, Initial residual = 0.26537929992, Final residual = 0.0237336992885, No Iterations 2
DILUPBiCGStab:  Solving for Uz, Initial residual = 0.0572072770361, Final residual = 0.00511474798245, No Iterations 2
linear solve U 4213917
[OGL LOG][Proc: 0]global_index_init : 12 mu s
[OGL LOG][Proc: 0]global_index_init : 2 mu s
[OGL LOG][Proc: 0]update_host_matrix_data : 121919 mu s
[OGL LOG][Proc: 0]gather_initGuess : 1 mu s
[OGL LOG][Proc: 0]gather_RHS : 0 mu s
[OGL LOG][Proc: 0]gather_global_matrix : 0 mu s
[OGL LOG][Proc: 0]init_precond : 602814 mu s
[OGL LOG][Proc: 0]generate_solver : 0 mu s
[OGL LOG][Proc: 0]solve : 969658 mu s
MultigridcudaGKOCG:  Solving for p, Initial residual = 1, Final residual = 0.00852981884662, No Iterations 25
linear solve p 3971138
time step continuity errors : sum local = 0.00265433661102, global = 0.00111720597368, cumulative = 0.0112713936114
DILUPBiCGStab:  Solving for omega, Initial residual = 0.000221582469467, Final residual = 8.81676018726e-06, No Iterations 1
linear solve omega 774317
DILUPBiCGStab:  Solving for k, Initial residual = 0.00211564877596, Final residual = 7.32197426987e-05, No Iterations 1
linear solve k 788549
ExecutionTime = 552.85 s  ClockTime = 559 s

End

Finalising parallel run
================================================================================
