hash: 981bf3c93e75186598b7dec8b822ff09
/*---------------------------------------------------------------------------*\
| =========                 |                                                 |
| \\      /  F ield         | OpenFOAM: The Open Source CFD Toolbox           |
|  \\    /   O peration     | Version:  v2106                                 |
|   \\  /    A nd           | Website:  www.openfoam.com                      |
|    \\/     M anipulation  |                                                 |
\*---------------------------------------------------------------------------*/
Build  : f815a12bba-20210902 OPENFOAM=2106
Arch   : "LSB;label=32;scalar=64"
Exec   : simpleFoam -parallel
Date   : Jan 26 2022
Time   : 08:39:48
Host   : nla-gpu2.ianm.kit.edu
PID    : 2353424
I/O    : uncollated
Case   : /home/greole/data/code/ogl_labbook/motorcycle_solver/solver/Variation_mesh/Large/Variation_matrix_solver/CG_BJ_HIP/Variation_mpiRank/16/base
nProcs : 16
Hosts  :
(
    (nla-gpu2.ianm.kit.edu 16)
)
Pstream initialized with:
    floatTransfer      : 0
    nProcsSimpleSum    : 0
    commsType          : nonBlocking
    polling iterations : 0
trapFpe: Floating point exception trapping enabled (FOAM_SIGFPE).
fileModificationChecking : Monitoring run-time modified files using timeStampMaster (fileModificationSkew 5, maxFileModificationPolls 20)
allowSystemOperations : Allowing user-supplied system call operations

// * * * * * * * * * * * * * * * * * * * * * * * * * * * * * * * * * * * * * //
Create time

Create mesh for time = 0


SIMPLE: no convergence criteria found. Calculations will run for 3 steps.

Reading field p

Reading field U

Reading/calculating face flux field phi

Selecting incompressible transport model Newtonian
Selecting turbulence model type RAS
Selecting RAS turbulence model kOmegaSST
Selecting patchDistMethod meshWave
RAS
{
    RASModel        kOmegaSST;
    turbulence      on;
    printCoeffs     on;
    alphaK1         0.85;
    alphaK2         1;
    alphaOmega1     0.5;
    alphaOmega2     0.856;
    gamma1          0.555555555556;
    gamma2          0.44;
    beta1           0.075;
    beta2           0.0828;
    betaStar        0.09;
    a1              0.31;
    b1              1;
    c1              10;
    F3              false;
    decayControl    false;
    kInf            0;
    omegaInf        0;
}

No MRF models present

No finite volume options present

Starting time loop

Time = 1

DILUPBiCGStab:  Solving for Ux, Initial residual = 0.029840818522, Final residual = 0.000890765537447, No Iterations 4
DILUPBiCGStab:  Solving for Uy, Initial residual = 0.416436009777, Final residual = 0.0325999042504, No Iterations 3
DILUPBiCGStab:  Solving for Uz, Initial residual = 0.262309070745, Final residual = 0.0119350495045, No Iterations 3
linear solve U 2115425
[OGL LOG][Proc: 0]global_index_init : 156887 mu s
[OGL LOG][Proc: 0]global_index_init : 5 mu s
[OGL LOG][Proc: 0]global_index_init : 5 mu s
[OGL LOG][Proc: 0]global_index_init : 6 mu s
[OGL LOG][Proc: 0]init_host_sparsity_pattern : 30012616 mu s
[OGL LOG][Proc: 0]update_host_matrix_data : 96428 mu s
[OGL LOG][Proc: 0]convert_coo_to_csr : 12071 mu s
[OGL LOG][Proc: 0]gather_initGuess : 160961 mu s
[OGL LOG][Proc: 0]gather_RHS : 78616 mu s
[OGL LOG][Proc: 0]gather_global_matrix : 0 mu s
[OGL LOG][Proc: 0]init_precond : 101835 mu s
[OGL LOG][Proc: 0]generate_solver : 20 mu s
[OGL LOG][Proc: 0]solve : 9082513 mu s
[OGL LOG][Proc: 0]retrieve_result_from_device : 89948 mu s
BJhipGKOCG:  Solving for p, Initial residual = 1, Final residual = 0.00994612008501, No Iterations 312
linear solve p 50051121
time step continuity errors : sum local = 0.000822084995926, global = 2.24757607353e-05, cumulative = 2.24757607353e-05
DILUPBiCGStab:  Solving for omega, Initial residual = 0.00231322949999, Final residual = 5.61408754836e-05, No Iterations 1
linear solve omega 361579
bounding omega, min: -64517.1123702 max: 2809464.71271 average: 2480.52242531
DILUPBiCGStab:  Solving for k, Initial residual = 0.999999998677, Final residual = 0.0418607412958, No Iterations 1
linear solve k 309257
ExecutionTime = 87.86 s  ClockTime = 88 s

Time = 2

DILUPBiCGStab:  Solving for Ux, Initial residual = 0.0152813083251, Final residual = 0.00104627803717, No Iterations 3
DILUPBiCGStab:  Solving for Uy, Initial residual = 0.263854881652, Final residual = 0.0177909394329, No Iterations 3
DILUPBiCGStab:  Solving for Uz, Initial residual = 0.131543528735, Final residual = 0.0068610448663, No Iterations 3
linear solve U 1761597
[OGL LOG][Proc: 0]global_index_init : 1921 mu s
[OGL LOG][Proc: 0]global_index_init : 6 mu s
[OGL LOG][Proc: 0]global_index_init : 7 mu s
[OGL LOG][Proc: 0]global_index_init : 5 mu s
[OGL LOG][Proc: 0]update_host_matrix_data : 81209 mu s
[OGL LOG][Proc: 0]gather_initGuess : 20694 mu s
[OGL LOG][Proc: 0]gather_RHS : 149300 mu s
[OGL LOG][Proc: 0]gather_global_matrix : 0 mu s
[OGL LOG][Proc: 0]init_precond : 160122 mu s
[OGL LOG][Proc: 0]generate_solver : 1 mu s
[OGL LOG][Proc: 0]solve : 8702956 mu s
[OGL LOG][Proc: 0]retrieve_result_from_device : 77332 mu s
BJhipGKOCG:  Solving for p, Initial residual = 1, Final residual = 0.00803105352484, No Iterations 313
linear solve p 9249161
time step continuity errors : sum local = 0.10516956011, global = -2.93610386144e-05, cumulative = -6.88527787904e-06
DILUPBiCGStab:  Solving for omega, Initial residual = 0.00177915190445, Final residual = 4.48229656237e-05, No Iterations 1
linear solve omega 362225
bounding omega, min: -229.607004198 max: 2809502.68286 average: 2822.24919539
DILUPBiCGStab:  Solving for k, Initial residual = 0.0316652550315, Final residual = 0.00115077291176, No Iterations 1
linear solve k 304359
ExecutionTime = 104.98 s  ClockTime = 105 s

Time = 3

DILUPBiCGStab:  Solving for Ux, Initial residual = 0.0684452235608, Final residual = 0.00592769981536, No Iterations 7
DILUPBiCGStab:  Solving for Uy, Initial residual = 0.499261550455, Final residual = 0.0350966374479, No Iterations 7
DILUPBiCGStab:  Solving for Uz, Initial residual = 0.481548636527, Final residual = 0.0281041875801, No Iterations 9
linear solve U 4408138
[OGL LOG][Proc: 0]global_index_init : 1899 mu s
[OGL LOG][Proc: 0]global_index_init : 6 mu s
[OGL LOG][Proc: 0]global_index_init : 10 mu s
[OGL LOG][Proc: 0]global_index_init : 5 mu s
[OGL LOG][Proc: 0]update_host_matrix_data : 82813 mu s
[OGL LOG][Proc: 0]gather_initGuess : 21894 mu s
[OGL LOG][Proc: 0]gather_RHS : 141233 mu s
[OGL LOG][Proc: 0]gather_global_matrix : 0 mu s
[OGL LOG][Proc: 0]init_precond : 19726 mu s
[OGL LOG][Proc: 0]generate_solver : 1 mu s
[OGL LOG][Proc: 0]solve : 7111638 mu s
[OGL LOG][Proc: 0]retrieve_result_from_device : 139482 mu s
BJhipGKOCG:  Solving for p, Initial residual = 1, Final residual = 0.00259001061161, No Iterations 253
linear solve p 7625167
time step continuity errors : sum local = 4057.59481799, global = -0.0118803307423, cumulative = -0.0118872160202
DILUPBiCGStab:  Solving for omega, Initial residual = 0.0860356778179, Final residual = 0.000355734239897, No Iterations 1
linear solve omega 279962
DILUPBiCGStab:  Solving for k, Initial residual = 0.13080646293, Final residual = 0.000292429188466, No Iterations 1
linear solve k 312872
ExecutionTime = 122.91 s  ClockTime = 123 s

End

Finalising parallel run
================================================================================
hash: 3505738342db3ef9a8712b53aad92939
/*---------------------------------------------------------------------------*\
| =========                 |                                                 |
| \\      /  F ield         | OpenFOAM: The Open Source CFD Toolbox           |
|  \\    /   O peration     | Version:  v2106                                 |
|   \\  /    A nd           | Website:  www.openfoam.com                      |
|    \\/     M anipulation  |                                                 |
\*---------------------------------------------------------------------------*/
Build  : f815a12bba-20210902 OPENFOAM=2106
Arch   : "LSB;label=32;scalar=64"
Exec   : simpleFoam -parallel
Date   : Jan 26 2022
Time   : 08:41:53
Host   : nla-gpu2.ianm.kit.edu
PID    : 2354755
I/O    : uncollated
Case   : /home/greole/data/code/ogl_labbook/motorcycle_solver/solver/Variation_mesh/Large/Variation_matrix_solver/CG_BJ_HIP/Variation_mpiRank/32/base
nProcs : 32
Hosts  :
(
    (nla-gpu2.ianm.kit.edu 32)
)
Pstream initialized with:
    floatTransfer      : 0
    nProcsSimpleSum    : 0
    commsType          : nonBlocking
    polling iterations : 0
trapFpe: Floating point exception trapping enabled (FOAM_SIGFPE).
fileModificationChecking : Monitoring run-time modified files using timeStampMaster (fileModificationSkew 5, maxFileModificationPolls 20)
allowSystemOperations : Allowing user-supplied system call operations

// * * * * * * * * * * * * * * * * * * * * * * * * * * * * * * * * * * * * * //
Create time

Create mesh for time = 0


SIMPLE: no convergence criteria found. Calculations will run for 3 steps.

Reading field p

Reading field U

Reading/calculating face flux field phi

Selecting incompressible transport model Newtonian
Selecting turbulence model type RAS
Selecting RAS turbulence model kOmegaSST
Selecting patchDistMethod meshWave
RAS
{
    RASModel        kOmegaSST;
    turbulence      on;
    printCoeffs     on;
    alphaK1         0.85;
    alphaK2         1;
    alphaOmega1     0.5;
    alphaOmega2     0.856;
    gamma1          0.555555555556;
    gamma2          0.44;
    beta1           0.075;
    beta2           0.0828;
    betaStar        0.09;
    a1              0.31;
    b1              1;
    c1              10;
    F3              false;
    decayControl    false;
    kInf            0;
    omegaInf        0;
}

No MRF models present

No finite volume options present

Starting time loop

Time = 1

DILUPBiCGStab:  Solving for Ux, Initial residual = 0.0298408185319, Final residual = 0.0023442936585, No Iterations 3
DILUPBiCGStab:  Solving for Uy, Initial residual = 0.416436010106, Final residual = 0.0343159774748, No Iterations 3
DILUPBiCGStab:  Solving for Uz, Initial residual = 0.262309071038, Final residual = 0.0121250711235, No Iterations 3
linear solve U 1635789
[OGL LOG][Proc: 0]global_index_init : 281504 mu s
[OGL LOG][Proc: 0]global_index_init : 5 mu s
[OGL LOG][Proc: 0]global_index_init : 7 mu s
[OGL LOG][Proc: 0]global_index_init : 8 mu s
[OGL LOG][Proc: 0]init_host_sparsity_pattern : 6041067 mu s
[OGL LOG][Proc: 0]update_host_matrix_data : 47399 mu s
[OGL LOG][Proc: 0]convert_coo_to_csr : 12099 mu s
[OGL LOG][Proc: 0]gather_initGuess : 600220 mu s
[OGL LOG][Proc: 0]gather_RHS : 332747 mu s
[OGL LOG][Proc: 0]gather_global_matrix : 0 mu s
[OGL LOG][Proc: 0]init_precond : 798637 mu s
[OGL LOG][Proc: 0]generate_solver : 19 mu s
[OGL LOG][Proc: 0]solve : 18886946 mu s
[OGL LOG][Proc: 0]retrieve_result_from_device : 200692 mu s
BJhipGKOCG:  Solving for p, Initial residual = 1, Final residual = 0.00999607067914, No Iterations 310
linear solve p 43568098
time step continuity errors : sum local = 0.000822212073768, global = 1.6303070086e-05, cumulative = 1.6303070086e-05
DILUPBiCGStab:  Solving for omega, Initial residual = 0.00231518660431, Final residual = 5.70189648098e-05, No Iterations 1
linear solve omega 282551
bounding omega, min: -64021.0409441 max: 2809464.71271 average: 2480.21483321
DILUPBiCGStab:  Solving for k, Initial residual = 0.999999999282, Final residual = 0.0479519272134, No Iterations 1
linear solve k 235818
ExecutionTime = 66.47 s  ClockTime = 66 s

Time = 2

DILUPBiCGStab:  Solving for Ux, Initial residual = 0.0152139175508, Final residual = 0.00107174283995, No Iterations 3
DILUPBiCGStab:  Solving for Uy, Initial residual = 0.262342045434, Final residual = 0.0184611000169, No Iterations 3
DILUPBiCGStab:  Solving for Uz, Initial residual = 0.129723505005, Final residual = 0.00712275887823, No Iterations 3
linear solve U 1391870
[OGL LOG][Proc: 0]global_index_init : 1369 mu s
[OGL LOG][Proc: 0]global_index_init : 5 mu s
[OGL LOG][Proc: 0]global_index_init : 9 mu s
[OGL LOG][Proc: 0]global_index_init : 8 mu s
[OGL LOG][Proc: 0]update_host_matrix_data : 80411 mu s
[OGL LOG][Proc: 0]gather_initGuess : 324531 mu s
[OGL LOG][Proc: 0]gather_RHS : 332162 mu s
[OGL LOG][Proc: 0]gather_global_matrix : 0 mu s
[OGL LOG][Proc: 0]init_precond : 19410 mu s
[OGL LOG][Proc: 0]generate_solver : 1 mu s
[OGL LOG][Proc: 0]solve : 18435586 mu s
[OGL LOG][Proc: 0]retrieve_result_from_device : 81736 mu s
BJhipGKOCG:  Solving for p, Initial residual = 1, Final residual = 0.00997919248347, No Iterations 301
linear solve p 19496451
time step continuity errors : sum local = 0.104037368195, global = -4.98398509174e-05, cumulative = -3.35367808315e-05
DILUPBiCGStab:  Solving for omega, Initial residual = 0.00177756335503, Final residual = 4.54624750157e-05, No Iterations 1
linear solve omega 277245
bounding omega, min: -214.818506584 max: 2809572.6091 average: 2823.16239843
DILUPBiCGStab:  Solving for k, Initial residual = 0.0314817575767, Final residual = 0.00134050131424, No Iterations 1
linear solve k 257063
ExecutionTime = 92.18 s  ClockTime = 91 s

Time = 3

DILUPBiCGStab:  Solving for Ux, Initial residual = 0.0759226337177, Final residual = 0.00699811213504, No Iterations 7
DILUPBiCGStab:  Solving for Uy, Initial residual = 0.497402829115, Final residual = 0.0461021352861, No Iterations 7
DILUPBiCGStab:  Solving for Uz, Initial residual = 0.470310544082, Final residual = 0.0433741766309, No Iterations 7
linear solve U 3156533
[OGL LOG][Proc: 0]global_index_init : 1251 mu s
[OGL LOG][Proc: 0]global_index_init : 7 mu s
[OGL LOG][Proc: 0]global_index_init : 6 mu s
[OGL LOG][Proc: 0]global_index_init : 8 mu s
[OGL LOG][Proc: 0]update_host_matrix_data : 80368 mu s
[OGL LOG][Proc: 0]gather_initGuess : 19006 mu s
[OGL LOG][Proc: 0]gather_RHS : 315616 mu s
[OGL LOG][Proc: 0]gather_global_matrix : 0 mu s
[OGL LOG][Proc: 0]init_precond : 19393 mu s
[OGL LOG][Proc: 0]generate_solver : 1 mu s
[OGL LOG][Proc: 0]solve : 14496043 mu s
[OGL LOG][Proc: 0]retrieve_result_from_device : 570829 mu s
BJhipGKOCG:  Solving for p, Initial residual = 1, Final residual = 0.00310752669871, No Iterations 241
linear solve p 15671616
time step continuity errors : sum local = 4280.04361631, global = -0.0106414060682, cumulative = -0.010674942849
DILUPBiCGStab:  Solving for omega, Initial residual = 0.0848587928098, Final residual = 0.00036128692907, No Iterations 1
linear solve omega 216604
DILUPBiCGStab:  Solving for k, Initial residual = 0.133395774676, Final residual = 0.000294049097749, No Iterations 1
linear solve k 250650
ExecutionTime = 115.67 s  ClockTime = 115 s

End

Finalising parallel run
================================================================================
hash: aa46b4e7c93719dd23074f5c44086466
/*---------------------------------------------------------------------------*\
| =========                 |                                                 |
| \\      /  F ield         | OpenFOAM: The Open Source CFD Toolbox           |
|  \\    /   O peration     | Version:  v2106                                 |
|   \\  /    A nd           | Website:  www.openfoam.com                      |
|    \\/     M anipulation  |                                                 |
\*---------------------------------------------------------------------------*/
Build  : f815a12bba-20210902 OPENFOAM=2106
Arch   : "LSB;label=32;scalar=64"
Exec   : simpleFoam -parallel
Date   : Jan 26 2022
Time   : 08:43:49
Host   : nla-gpu2.ianm.kit.edu
PID    : 2356048
I/O    : uncollated
Case   : /home/greole/data/code/ogl_labbook/motorcycle_solver/solver/Variation_mesh/Large/Variation_matrix_solver/CG_BJ_HIP/Variation_mpiRank/4/base
nProcs : 4
Hosts  :
(
    (nla-gpu2.ianm.kit.edu 4)
)
Pstream initialized with:
    floatTransfer      : 0
    nProcsSimpleSum    : 0
    commsType          : nonBlocking
    polling iterations : 0
trapFpe: Floating point exception trapping enabled (FOAM_SIGFPE).
fileModificationChecking : Monitoring run-time modified files using timeStampMaster (fileModificationSkew 5, maxFileModificationPolls 20)
allowSystemOperations : Allowing user-supplied system call operations

// * * * * * * * * * * * * * * * * * * * * * * * * * * * * * * * * * * * * * //
Create time

Create mesh for time = 0


SIMPLE: no convergence criteria found. Calculations will run for 3 steps.

Reading field p

Reading field U

Reading/calculating face flux field phi

Selecting incompressible transport model Newtonian
Selecting turbulence model type RAS
Selecting RAS turbulence model kOmegaSST
Selecting patchDistMethod meshWave
RAS
{
    RASModel        kOmegaSST;
    turbulence      on;
    printCoeffs     on;
    alphaK1         0.85;
    alphaK2         1;
    alphaOmega1     0.5;
    alphaOmega2     0.856;
    gamma1          0.555555555556;
    gamma2          0.44;
    beta1           0.075;
    beta2           0.0828;
    betaStar        0.09;
    a1              0.31;
    b1              1;
    c1              10;
    F3              false;
    decayControl    false;
    kInf            0;
    omegaInf        0;
}

No MRF models present

No finite volume options present

Starting time loop

Time = 1

DILUPBiCGStab:  Solving for Ux, Initial residual = 0.0298408184804, Final residual = 0.000860482801151, No Iterations 4
DILUPBiCGStab:  Solving for Uy, Initial residual = 0.416436009193, Final residual = 0.0300438011241, No Iterations 3
DILUPBiCGStab:  Solving for Uz, Initial residual = 0.262309070455, Final residual = 0.010828825442, No Iterations 3
linear solve U 6641781
[OGL LOG][Proc: 0]global_index_init : 59 mu s
[OGL LOG][Proc: 0]global_index_init : 2 mu s
[OGL LOG][Proc: 0]global_index_init : 1 mu s
[OGL LOG][Proc: 0]global_index_init : 3 mu s
[OGL LOG][Proc: 0]init_host_sparsity_pattern : 18102015 mu s
[OGL LOG][Proc: 0]update_host_matrix_data : 255160 mu s
[OGL LOG][Proc: 0]convert_coo_to_csr : 12020 mu s
[OGL LOG][Proc: 0]gather_initGuess : 69604 mu s
[OGL LOG][Proc: 0]gather_RHS : 69005 mu s
[OGL LOG][Proc: 0]gather_global_matrix : 0 mu s
[OGL LOG][Proc: 0]init_precond : 47627 mu s
[OGL LOG][Proc: 0]generate_solver : 17 mu s
[OGL LOG][Proc: 0]solve : 3405774 mu s
[OGL LOG][Proc: 0]retrieve_result_from_device : 73806 mu s
BJhipGKOCG:  Solving for p, Initial residual = 1, Final residual = 0.00993657440708, No Iterations 313
linear solve p 23728968
time step continuity errors : sum local = 0.000817607927687, global = 2.54437142944e-05, cumulative = 2.54437142944e-05
DILUPBiCGStab:  Solving for omega, Initial residual = 0.00231302827016, Final residual = 5.52255337322e-05, No Iterations 1
linear solve omega 932361
bounding omega, min: -64292.1823426 max: 2809464.71271 average: 2480.73744649
DILUPBiCGStab:  Solving for k, Initial residual = 0.999999998225, Final residual = 0.0409563433503, No Iterations 1
linear solve k 930775
ExecutionTime = 148.98 s  ClockTime = 149 s

Time = 2

DILUPBiCGStab:  Solving for Ux, Initial residual = 0.015282605811, Final residual = 0.000978438194626, No Iterations 3
DILUPBiCGStab:  Solving for Uy, Initial residual = 0.264123240448, Final residual = 0.0161359653388, No Iterations 3
DILUPBiCGStab:  Solving for Uz, Initial residual = 0.131459342348, Final residual = 0.00667552958981, No Iterations 3
linear solve U 5443412
[OGL LOG][Proc: 0]global_index_init : 335 mu s
[OGL LOG][Proc: 0]global_index_init : 4 mu s
[OGL LOG][Proc: 0]global_index_init : 3 mu s
[OGL LOG][Proc: 0]global_index_init : 2 mu s
[OGL LOG][Proc: 0]update_host_matrix_data : 216898 mu s
[OGL LOG][Proc: 0]gather_initGuess : 21055 mu s
[OGL LOG][Proc: 0]gather_RHS : 66891 mu s
[OGL LOG][Proc: 0]gather_global_matrix : 0 mu s
[OGL LOG][Proc: 0]init_precond : 19157 mu s
[OGL LOG][Proc: 0]generate_solver : 1 mu s
[OGL LOG][Proc: 0]solve : 3195841 mu s
[OGL LOG][Proc: 0]retrieve_result_from_device : 73186 mu s
BJhipGKOCG:  Solving for p, Initial residual = 1, Final residual = 0.00967879759262, No Iterations 313
linear solve p 3666506
time step continuity errors : sum local = 0.0803271175775, global = -2.82107917374e-05, cumulative = -2.76707744294e-06
DILUPBiCGStab:  Solving for omega, Initial residual = 0.00162489351244, Final residual = 4.48903105766e-05, No Iterations 1
linear solve omega 924901
bounding omega, min: -213.853127825 max: 2809506.72859 average: 2816.24058491
DILUPBiCGStab:  Solving for k, Initial residual = 0.0301101401363, Final residual = 0.00114331577234, No Iterations 1
linear solve k 927956
ExecutionTime = 176.6 s  ClockTime = 176 s

Time = 3

DILUPBiCGStab:  Solving for Ux, Initial residual = 0.0556751073979, Final residual = 0.00456656170017, No Iterations 7
DILUPBiCGStab:  Solving for Uy, Initial residual = 0.465376911068, Final residual = 0.0284292021486, No Iterations 7
DILUPBiCGStab:  Solving for Uz, Initial residual = 0.442720156244, Final residual = 0.0415304788217, No Iterations 7
linear solve U 12573810
[OGL LOG][Proc: 0]global_index_init : 424 mu s
[OGL LOG][Proc: 0]global_index_init : 4 mu s
[OGL LOG][Proc: 0]global_index_init : 2 mu s
[OGL LOG][Proc: 0]global_index_init : 2 mu s
[OGL LOG][Proc: 0]update_host_matrix_data : 218255 mu s
[OGL LOG][Proc: 0]gather_initGuess : 17761 mu s
[OGL LOG][Proc: 0]gather_RHS : 63590 mu s
[OGL LOG][Proc: 0]gather_global_matrix : 1 mu s
[OGL LOG][Proc: 0]init_precond : 19115 mu s
[OGL LOG][Proc: 0]generate_solver : 0 mu s
[OGL LOG][Proc: 0]solve : 2585630 mu s
[OGL LOG][Proc: 0]retrieve_result_from_device : 73617 mu s
BJhipGKOCG:  Solving for p, Initial residual = 1, Final residual = 0.00268322723759, No Iterations 253
linear solve p 3051503
time step continuity errors : sum local = 2955.10007073, global = -0.00472368509817, cumulative = -0.00472645217561
DILUPBiCGStab:  Solving for omega, Initial residual = 0.081605414841, Final residual = 0.000336070690718, No Iterations 1
linear solve omega 662648
bounding omega, min: -901.540748783 max: 2808959.32251 average: 3271.18926542
DILUPBiCGStab:  Solving for k, Initial residual = 0.132555674449, Final residual = 0.000316877201091, No Iterations 1
linear solve k 937807
ExecutionTime = 210.51 s  ClockTime = 210 s

End

Finalising parallel run
================================================================================
hash: f44692bbbc25b6d960c1a8bbe69e3a2d
/*---------------------------------------------------------------------------*\
| =========                 |                                                 |
| \\      /  F ield         | OpenFOAM: The Open Source CFD Toolbox           |
|  \\    /   O peration     | Version:  v2106                                 |
|   \\  /    A nd           | Website:  www.openfoam.com                      |
|    \\/     M anipulation  |                                                 |
\*---------------------------------------------------------------------------*/
Build  : f815a12bba-20210902 OPENFOAM=2106
Arch   : "LSB;label=32;scalar=64"
Exec   : simpleFoam -parallel
Date   : Jan 26 2022
Time   : 08:47:21
Host   : nla-gpu2.ianm.kit.edu
PID    : 2358168
I/O    : uncollated
Case   : /home/greole/data/code/ogl_labbook/motorcycle_solver/solver/Variation_mesh/Large/Variation_matrix_solver/CG_BJ_HIP/Variation_mpiRank/8/base
nProcs : 8
Hosts  :
(
    (nla-gpu2.ianm.kit.edu 8)
)
Pstream initialized with:
    floatTransfer      : 0
    nProcsSimpleSum    : 0
    commsType          : nonBlocking
    polling iterations : 0
trapFpe: Floating point exception trapping enabled (FOAM_SIGFPE).
fileModificationChecking : Monitoring run-time modified files using timeStampMaster (fileModificationSkew 5, maxFileModificationPolls 20)
allowSystemOperations : Allowing user-supplied system call operations

// * * * * * * * * * * * * * * * * * * * * * * * * * * * * * * * * * * * * * //
Create time

Create mesh for time = 0


SIMPLE: no convergence criteria found. Calculations will run for 3 steps.

Reading field p

Reading field U

Reading/calculating face flux field phi

Selecting incompressible transport model Newtonian
Selecting turbulence model type RAS
Selecting RAS turbulence model kOmegaSST
Selecting patchDistMethod meshWave
RAS
{
    RASModel        kOmegaSST;
    turbulence      on;
    printCoeffs     on;
    alphaK1         0.85;
    alphaK2         1;
    alphaOmega1     0.5;
    alphaOmega2     0.856;
    gamma1          0.555555555556;
    gamma2          0.44;
    beta1           0.075;
    beta2           0.0828;
    betaStar        0.09;
    a1              0.31;
    b1              1;
    c1              10;
    F3              false;
    decayControl    false;
    kInf            0;
    omegaInf        0;
}

No MRF models present

No finite volume options present

Starting time loop

Time = 1

DILUPBiCGStab:  Solving for Ux, Initial residual = 0.0298408184793, Final residual = 0.00218216071274, No Iterations 3
DILUPBiCGStab:  Solving for Uy, Initial residual = 0.416436009197, Final residual = 0.0316946277838, No Iterations 3
DILUPBiCGStab:  Solving for Uz, Initial residual = 0.262309070484, Final residual = 0.0117523460212, No Iterations 3
linear solve U 3306500
[OGL LOG][Proc: 0]global_index_init : 18221 mu s
[OGL LOG][Proc: 0]global_index_init : 4 mu s
[OGL LOG][Proc: 0]global_index_init : 4 mu s
[OGL LOG][Proc: 0]global_index_init : 4 mu s
[OGL LOG][Proc: 0]init_host_sparsity_pattern : 47922258 mu s
[OGL LOG][Proc: 0]update_host_matrix_data : 128136 mu s
[OGL LOG][Proc: 0]convert_coo_to_csr : 12070 mu s
[OGL LOG][Proc: 0]gather_initGuess : 78943 mu s
[OGL LOG][Proc: 0]gather_RHS : 75109 mu s
[OGL LOG][Proc: 0]gather_global_matrix : 1 mu s
[OGL LOG][Proc: 0]init_precond : 47970 mu s
[OGL LOG][Proc: 0]generate_solver : 16 mu s
[OGL LOG][Proc: 0]solve : 3369880 mu s
[OGL LOG][Proc: 0]retrieve_result_from_device : 69906 mu s
BJhipGKOCG:  Solving for p, Initial residual = 1, Final residual = 0.00994635933936, No Iterations 311
linear solve p 60071419
time step continuity errors : sum local = 0.000813064304687, global = 1.74566960869e-05, cumulative = 1.74566960869e-05
DILUPBiCGStab:  Solving for omega, Initial residual = 0.00231432608401, Final residual = 5.56912234479e-05, No Iterations 1
linear solve omega 542345
bounding omega, min: -63946.3748575 max: 2809464.71271 average: 2480.53191328
DILUPBiCGStab:  Solving for k, Initial residual = 0.999999998376, Final residual = 0.0429181013086, No Iterations 1
linear solve k 488816
ExecutionTime = 126.58 s  ClockTime = 127 s

Time = 2

DILUPBiCGStab:  Solving for Ux, Initial residual = 0.0152130793103, Final residual = 0.00100535055216, No Iterations 3
DILUPBiCGStab:  Solving for Uy, Initial residual = 0.261554409166, Final residual = 0.0185837332341, No Iterations 3
DILUPBiCGStab:  Solving for Uz, Initial residual = 0.130091201876, Final residual = 0.00669531915082, No Iterations 3
linear solve U 2806932
[OGL LOG][Proc: 0]global_index_init : 1764 mu s
[OGL LOG][Proc: 0]global_index_init : 3 mu s
[OGL LOG][Proc: 0]global_index_init : 6 mu s
[OGL LOG][Proc: 0]global_index_init : 5 mu s
[OGL LOG][Proc: 0]update_host_matrix_data : 110632 mu s
[OGL LOG][Proc: 0]gather_initGuess : 21337 mu s
[OGL LOG][Proc: 0]gather_RHS : 81502 mu s
[OGL LOG][Proc: 0]gather_global_matrix : 1 mu s
[OGL LOG][Proc: 0]init_precond : 19792 mu s
[OGL LOG][Proc: 0]generate_solver : 1 mu s
[OGL LOG][Proc: 0]solve : 3184375 mu s
[OGL LOG][Proc: 0]retrieve_result_from_device : 59788 mu s
BJhipGKOCG:  Solving for p, Initial residual = 1, Final residual = 0.00891035868671, No Iterations 313
linear solve p 3520036
time step continuity errors : sum local = 0.0943553787616, global = -3.09351395251e-05, cumulative = -1.34784434382e-05
DILUPBiCGStab:  Solving for omega, Initial residual = 0.00171837004543, Final residual = 4.50337021598e-05, No Iterations 1
linear solve omega 540092
bounding omega, min: -211.89083436 max: 2809559.188 average: 2821.59723231
DILUPBiCGStab:  Solving for k, Initial residual = 0.0309537471946, Final residual = 0.00117627408819, No Iterations 1
linear solve k 492384
ExecutionTime = 142.58 s  ClockTime = 143 s

Time = 3

DILUPBiCGStab:  Solving for Ux, Initial residual = 0.0756239481688, Final residual = 0.00148869887258, No Iterations 9
DILUPBiCGStab:  Solving for Uy, Initial residual = 0.501614149574, Final residual = 0.0409182327404, No Iterations 7
DILUPBiCGStab:  Solving for Uz, Initial residual = 0.462140020021, Final residual = 0.0332948438379, No Iterations 7
linear solve U 6945843
[OGL LOG][Proc: 0]global_index_init : 2234 mu s
[OGL LOG][Proc: 0]global_index_init : 4 mu s
[OGL LOG][Proc: 0]global_index_init : 6 mu s
[OGL LOG][Proc: 0]global_index_init : 3 mu s
[OGL LOG][Proc: 0]update_host_matrix_data : 110467 mu s
[OGL LOG][Proc: 0]gather_initGuess : 17789 mu s
[OGL LOG][Proc: 0]gather_RHS : 74636 mu s
[OGL LOG][Proc: 0]gather_global_matrix : 0 mu s
[OGL LOG][Proc: 0]init_precond : 19075 mu s
[OGL LOG][Proc: 0]generate_solver : 1 mu s
[OGL LOG][Proc: 0]solve : 2574778 mu s
[OGL LOG][Proc: 0]retrieve_result_from_device : 74921 mu s
BJhipGKOCG:  Solving for p, Initial residual = 1, Final residual = 0.00278587888044, No Iterations 253
linear solve p 2910844
time step continuity errors : sum local = 4011.53379702, global = -0.0144519890494, cumulative = -0.0144654674929
DILUPBiCGStab:  Solving for omega, Initial residual = 0.0988853765168, Final residual = 0.000388617614461, No Iterations 1
linear solve omega 396719
bounding omega, min: -863.373126321 max: 2809005.64517 average: 3322.97856303
DILUPBiCGStab:  Solving for k, Initial residual = 0.130113067663, Final residual = 0.000237958408405, No Iterations 1
linear solve k 485701
ExecutionTime = 161.99 s  ClockTime = 162 s

End

Finalising parallel run
================================================================================
hash: 95764b5488ffe479f01ad3c76ee3fab0
/*---------------------------------------------------------------------------*\
| =========                 |                                                 |
| \\      /  F ield         | OpenFOAM: The Open Source CFD Toolbox           |
|  \\    /   O peration     | Version:  v2106                                 |
|   \\  /    A nd           | Website:  www.openfoam.com                      |
|    \\/     M anipulation  |                                                 |
\*---------------------------------------------------------------------------*/
Build  : f815a12bba-20210902 OPENFOAM=2106
Arch   : "LSB;label=32;scalar=64"
Exec   : simpleFoam -parallel
Date   : Jan 26 2022
Time   : 08:50:04
Host   : nla-gpu2.ianm.kit.edu
PID    : 2359729
I/O    : uncollated
Case   : /home/greole/data/code/ogl_labbook/motorcycle_solver/solver/Variation_mesh/Large/Variation_matrix_solver/BiCGStab_ISAI_HIP/Variation_mpiRank/16/base
nProcs : 16
Hosts  :
(
    (nla-gpu2.ianm.kit.edu 16)
)
Pstream initialized with:
    floatTransfer      : 0
    nProcsSimpleSum    : 0
    commsType          : nonBlocking
    polling iterations : 0
trapFpe: Floating point exception trapping enabled (FOAM_SIGFPE).
fileModificationChecking : Monitoring run-time modified files using timeStampMaster (fileModificationSkew 5, maxFileModificationPolls 20)
allowSystemOperations : Allowing user-supplied system call operations

// * * * * * * * * * * * * * * * * * * * * * * * * * * * * * * * * * * * * * //
Create time

Create mesh for time = 0


SIMPLE: no convergence criteria found. Calculations will run for 3 steps.

Reading field p

Reading field U

Reading/calculating face flux field phi

Selecting incompressible transport model Newtonian
Selecting turbulence model type RAS
Selecting RAS turbulence model kOmegaSST
Selecting patchDistMethod meshWave
RAS
{
    RASModel        kOmegaSST;
    turbulence      on;
    printCoeffs     on;
    alphaK1         0.85;
    alphaK2         1;
    alphaOmega1     0.5;
    alphaOmega2     0.856;
    gamma1          0.555555555556;
    gamma2          0.44;
    beta1           0.075;
    beta2           0.0828;
    betaStar        0.09;
    a1              0.31;
    b1              1;
    c1              10;
    F3              false;
    decayControl    false;
    kInf            0;
    omegaInf        0;
}

No MRF models present

No finite volume options present

Starting time loop

Time = 1

DILUPBiCGStab:  Solving for Ux, Initial residual = 0.029840818522, Final residual = 0.000890765537447, No Iterations 4
DILUPBiCGStab:  Solving for Uy, Initial residual = 0.416436009777, Final residual = 0.0325999042504, No Iterations 3
DILUPBiCGStab:  Solving for Uz, Initial residual = 0.262309070745, Final residual = 0.0119350495045, No Iterations 3
linear solve U 2108619
[OGL LOG][Proc: 0]global_index_init : 70383 mu s
[OGL LOG][Proc: 0]global_index_init : 5 mu s
[OGL LOG][Proc: 0]global_index_init : 5 mu s
[OGL LOG][Proc: 0]global_index_init : 5 mu s
[OGL LOG][Proc: 0]init_host_sparsity_pattern : 30147509 mu s
[OGL LOG][Proc: 0]update_host_matrix_data : 95929 mu s
[OGL LOG][Proc: 0]convert_coo_to_csr : 11941 mu s
[OGL LOG][Proc: 0]gather_initGuess : 127684 mu s
[OGL LOG][Proc: 0]gather_RHS : 154510 mu s
[OGL LOG][Proc: 0]gather_global_matrix : 0 mu s
[OGL LOG][Proc: 0]init_precond : 14619632 mu s
[OGL LOG][Proc: 0]generate_solver : 14 mu s
[OGL LOG][Proc: 0]solve : 4707617 mu s
[OGL LOG][Proc: 0]retrieve_result_from_device : 72735 mu s
ISAIhipGKOBiCGStab:  Solving for p, Initial residual = 1, Final residual = 0.00756358024625, No Iterations 68
linear solve p 59818148
time step continuity errors : sum local = 0.000625158934618, global = 5.36285156031e-05, cumulative = 5.36285156031e-05
DILUPBiCGStab:  Solving for omega, Initial residual = 0.0023135470962, Final residual = 5.61709880361e-05, No Iterations 1
linear solve omega 364990
bounding omega, min: -64430.3915737 max: 2809464.71271 average: 2480.00696923
DILUPBiCGStab:  Solving for k, Initial residual = 0.999999998687, Final residual = 0.0418676440301, No Iterations 1
linear solve k 310124
ExecutionTime = 97.61 s  ClockTime = 98 s

Time = 2

DILUPBiCGStab:  Solving for Ux, Initial residual = 0.015218195542, Final residual = 0.00104065577871, No Iterations 3
DILUPBiCGStab:  Solving for Uy, Initial residual = 0.264027182095, Final residual = 0.0178101295449, No Iterations 3
DILUPBiCGStab:  Solving for Uz, Initial residual = 0.127971294154, Final residual = 0.00666267237038, No Iterations 3
linear solve U 1763087
[OGL LOG][Proc: 0]global_index_init : 1764 mu s
[OGL LOG][Proc: 0]global_index_init : 4 mu s
[OGL LOG][Proc: 0]global_index_init : 6 mu s
[OGL LOG][Proc: 0]global_index_init : 6 mu s
[OGL LOG][Proc: 0]update_host_matrix_data : 80276 mu s
[OGL LOG][Proc: 0]gather_initGuess : 17977 mu s
[OGL LOG][Proc: 0]gather_RHS : 152526 mu s
[OGL LOG][Proc: 0]gather_global_matrix : 1 mu s
[OGL LOG][Proc: 0]init_precond : 14746381 mu s
[OGL LOG][Proc: 0]generate_solver : 2 mu s
[OGL LOG][Proc: 0]solve : 3789200 mu s
[OGL LOG][Proc: 0]retrieve_result_from_device : 204489 mu s
ISAIhipGKOBiCGStab:  Solving for p, Initial residual = 1, Final residual = 0.00855548830075, No Iterations 58
linear solve p 19064968
time step continuity errors : sum local = 0.105737493405, global = 0.000208623630071, cumulative = 0.000262252145674
DILUPBiCGStab:  Solving for omega, Initial residual = 0.00179842794074, Final residual = 4.51598909303e-05, No Iterations 1
linear solve omega 359590
bounding omega, min: -216.517338883 max: 2809502.03812 average: 2822.14207456
DILUPBiCGStab:  Solving for k, Initial residual = 0.0316533178009, Final residual = 0.00114857850182, No Iterations 1
linear solve k 308593
ExecutionTime = 124.46 s  ClockTime = 125 s

Time = 3

DILUPBiCGStab:  Solving for Ux, Initial residual = 0.0751624457635, Final residual = 0.00628951460119, No Iterations 7
DILUPBiCGStab:  Solving for Uy, Initial residual = 0.502343999916, Final residual = 0.0413657890194, No Iterations 7
DILUPBiCGStab:  Solving for Uz, Initial residual = 0.481851051658, Final residual = 0.0385614616017, No Iterations 6
linear solve U 3958703
[OGL LOG][Proc: 0]global_index_init : 1531 mu s
[OGL LOG][Proc: 0]global_index_init : 5 mu s
[OGL LOG][Proc: 0]global_index_init : 6 mu s
[OGL LOG][Proc: 0]global_index_init : 7 mu s
[OGL LOG][Proc: 0]update_host_matrix_data : 83156 mu s
[OGL LOG][Proc: 0]gather_initGuess : 21951 mu s
[OGL LOG][Proc: 0]gather_RHS : 74544 mu s
[OGL LOG][Proc: 0]gather_global_matrix : 0 mu s
[OGL LOG][Proc: 0]init_precond : 14819555 mu s
[OGL LOG][Proc: 0]generate_solver : 0 mu s
[OGL LOG][Proc: 0]solve : 1850837 mu s
[OGL LOG][Proc: 0]retrieve_result_from_device : 73010 mu s
ISAIhipGKOBiCGStab:  Solving for p, Initial residual = 1, Final residual = 0.00847430767957, No Iterations 28
linear solve p 17047201
time step continuity errors : sum local = 4077.76390781, global = 0.000280193741112, cumulative = 0.000542445886786
DILUPBiCGStab:  Solving for omega, Initial residual = 0.0856371972633, Final residual = 0.000350663682433, No Iterations 1
linear solve omega 265844
DILUPBiCGStab:  Solving for k, Initial residual = 0.131532847818, Final residual = 0.000298656161763, No Iterations 1
linear solve k 305549
ExecutionTime = 151.23 s  ClockTime = 151 s

End

Finalising parallel run
================================================================================
hash: abdef5a4b7c33f04f7b5c7ebfc399cab
/*---------------------------------------------------------------------------*\
| =========                 |                                                 |
| \\      /  F ield         | OpenFOAM: The Open Source CFD Toolbox           |
|  \\    /   O peration     | Version:  v2106                                 |
|   \\  /    A nd           | Website:  www.openfoam.com                      |
|    \\/     M anipulation  |                                                 |
\*---------------------------------------------------------------------------*/
Build  : f815a12bba-20210902 OPENFOAM=2106
Arch   : "LSB;label=32;scalar=64"
Exec   : simpleFoam -parallel
Date   : Jan 26 2022
Time   : 08:52:37
Host   : nla-gpu2.ianm.kit.edu
PID    : 2361256
I/O    : uncollated
Case   : /home/greole/data/code/ogl_labbook/motorcycle_solver/solver/Variation_mesh/Large/Variation_matrix_solver/BiCGStab_ISAI_HIP/Variation_mpiRank/32/base
nProcs : 32
Hosts  :
(
    (nla-gpu2.ianm.kit.edu 32)
)
Pstream initialized with:
    floatTransfer      : 0
    nProcsSimpleSum    : 0
    commsType          : nonBlocking
    polling iterations : 0
trapFpe: Floating point exception trapping enabled (FOAM_SIGFPE).
fileModificationChecking : Monitoring run-time modified files using timeStampMaster (fileModificationSkew 5, maxFileModificationPolls 20)
allowSystemOperations : Allowing user-supplied system call operations

// * * * * * * * * * * * * * * * * * * * * * * * * * * * * * * * * * * * * * //
Create time

Create mesh for time = 0


SIMPLE: no convergence criteria found. Calculations will run for 3 steps.

Reading field p

Reading field U

Reading/calculating face flux field phi

Selecting incompressible transport model Newtonian
Selecting turbulence model type RAS
Selecting RAS turbulence model kOmegaSST
Selecting patchDistMethod meshWave
RAS
{
    RASModel        kOmegaSST;
    turbulence      on;
    printCoeffs     on;
    alphaK1         0.85;
    alphaK2         1;
    alphaOmega1     0.5;
    alphaOmega2     0.856;
    gamma1          0.555555555556;
    gamma2          0.44;
    beta1           0.075;
    beta2           0.0828;
    betaStar        0.09;
    a1              0.31;
    b1              1;
    c1              10;
    F3              false;
    decayControl    false;
    kInf            0;
    omegaInf        0;
}

No MRF models present

No finite volume options present

Starting time loop

Time = 1

DILUPBiCGStab:  Solving for Ux, Initial residual = 0.0298408185319, Final residual = 0.0023442936585, No Iterations 3
DILUPBiCGStab:  Solving for Uy, Initial residual = 0.416436010106, Final residual = 0.0343159774748, No Iterations 3
DILUPBiCGStab:  Solving for Uz, Initial residual = 0.262309071038, Final residual = 0.0121250711235, No Iterations 3
linear solve U 1634160
[OGL LOG][Proc: 0]global_index_init : 201103 mu s
[OGL LOG][Proc: 0]global_index_init : 11 mu s
[OGL LOG][Proc: 0]global_index_init : 8 mu s
[OGL LOG][Proc: 0]global_index_init : 7 mu s
[OGL LOG][Proc: 0]init_host_sparsity_pattern : 6004132 mu s
[OGL LOG][Proc: 0]update_host_matrix_data : 45108 mu s
[OGL LOG][Proc: 0]convert_coo_to_csr : 298670 mu s
[OGL LOG][Proc: 0]gather_initGuess : 531695 mu s
[OGL LOG][Proc: 0]gather_RHS : 339846 mu s
[OGL LOG][Proc: 0]gather_global_matrix : 0 mu s
[OGL LOG][Proc: 0]init_precond : 45616691 mu s
[OGL LOG][Proc: 0]generate_solver : 15 mu s
[OGL LOG][Proc: 0]solve : 16678540 mu s
[OGL LOG][Proc: 0]retrieve_result_from_device : 298085 mu s
ISAIhipGKOBiCGStab:  Solving for p, Initial residual = 1, Final residual = 0.00881098409324, No Iterations 62
linear solve p 87141583
time step continuity errors : sum local = 0.000724734521771, global = 4.74190984503e-05, cumulative = 4.74190984503e-05
DILUPBiCGStab:  Solving for omega, Initial residual = 0.00231554282829, Final residual = 5.704766428e-05, No Iterations 1
linear solve omega 293230
bounding omega, min: -63863.1195669 max: 2809464.71271 average: 2479.66311224
DILUPBiCGStab:  Solving for k, Initial residual = 0.999999999288, Final residual = 0.0479620842605, No Iterations 1
linear solve k 259411
ExecutionTime = 109.86 s  ClockTime = 110 s

Time = 2

DILUPBiCGStab:  Solving for Ux, Initial residual = 0.0151551860993, Final residual = 0.00106478230003, No Iterations 3
DILUPBiCGStab:  Solving for Uy, Initial residual = 0.262506383696, Final residual = 0.018087771153, No Iterations 3
DILUPBiCGStab:  Solving for Uz, Initial residual = 0.125884377485, Final residual = 0.00689788132557, No Iterations 3
linear solve U 1394643
[OGL LOG][Proc: 0]global_index_init : 1299 mu s
[OGL LOG][Proc: 0]global_index_init : 6 mu s
[OGL LOG][Proc: 0]global_index_init : 6 mu s
[OGL LOG][Proc: 0]global_index_init : 9 mu s
[OGL LOG][Proc: 0]update_host_matrix_data : 78316 mu s
[OGL LOG][Proc: 0]gather_initGuess : 25958 mu s
[OGL LOG][Proc: 0]gather_RHS : 710135 mu s
[OGL LOG][Proc: 0]gather_global_matrix : 0 mu s
[OGL LOG][Proc: 0]init_precond : 51665475 mu s
[OGL LOG][Proc: 0]generate_solver : 2 mu s
[OGL LOG][Proc: 0]solve : 20521454 mu s
[OGL LOG][Proc: 0]retrieve_result_from_device : 83549 mu s
ISAIhipGKOBiCGStab:  Solving for p, Initial residual = 1, Final residual = 0.00864377560685, No Iterations 58
linear solve p 73342492
time step continuity errors : sum local = 0.104676025332, global = 0.000186013192069, cumulative = 0.000233432290519
DILUPBiCGStab:  Solving for omega, Initial residual = 0.00180076730523, Final residual = 4.5932420195e-05, No Iterations 1
linear solve omega 291186
bounding omega, min: -217.940587089 max: 2809572.43401 average: 2823.18262533
DILUPBiCGStab:  Solving for k, Initial residual = 0.0314681661839, Final residual = 0.00133697383835, No Iterations 1
linear solve k 244343
ExecutionTime = 189.25 s  ClockTime = 190 s

Time = 3

DILUPBiCGStab:  Solving for Ux, Initial residual = 0.082957608097, Final residual = 0.00801302573805, No Iterations 7
DILUPBiCGStab:  Solving for Uy, Initial residual = 0.502242919019, Final residual = 0.04082864705, No Iterations 8
DILUPBiCGStab:  Solving for Uz, Initial residual = 0.469201315071, Final residual = 0.0414254399331, No Iterations 7
linear solve U 3224683
[OGL LOG][Proc: 0]global_index_init : 1350 mu s
[OGL LOG][Proc: 0]global_index_init : 6 mu s
[OGL LOG][Proc: 0]global_index_init : 6 mu s
[OGL LOG][Proc: 0]global_index_init : 10 mu s
[OGL LOG][Proc: 0]update_host_matrix_data : 72923 mu s
[OGL LOG][Proc: 0]gather_initGuess : 324527 mu s
[OGL LOG][Proc: 0]gather_RHS : 332050 mu s
[OGL LOG][Proc: 0]gather_global_matrix : 0 mu s
[OGL LOG][Proc: 0]init_precond : 55239823 mu s
[OGL LOG][Proc: 0]generate_solver : 1 mu s
[OGL LOG][Proc: 0]solve : 7982237 mu s
[OGL LOG][Proc: 0]retrieve_result_from_device : 414793 mu s
ISAIhipGKOBiCGStab:  Solving for p, Initial residual = 1, Final residual = 0.00869020050578, No Iterations 28
linear solve p 64459532
time step continuity errors : sum local = 4291.38595225, global = 0.000254794056969, cumulative = 0.000488226347488
DILUPBiCGStab:  Solving for omega, Initial residual = 0.085330067734, Final residual = 0.000353928182648, No Iterations 1
linear solve omega 226763
DILUPBiCGStab:  Solving for k, Initial residual = 0.134116431674, Final residual = 0.000298689819693, No Iterations 1
linear solve k 247669
ExecutionTime = 261.42 s  ClockTime = 262 s

End

Finalising parallel run
================================================================================
hash: d8266c91f1b443fbf9723f9b71307f2a
/*---------------------------------------------------------------------------*\
| =========                 |                                                 |
| \\      /  F ield         | OpenFOAM: The Open Source CFD Toolbox           |
|  \\    /   O peration     | Version:  v2106                                 |
|   \\  /    A nd           | Website:  www.openfoam.com                      |
|    \\/     M anipulation  |                                                 |
\*---------------------------------------------------------------------------*/
Build  : f815a12bba-20210902 OPENFOAM=2106
Arch   : "LSB;label=32;scalar=64"
Exec   : simpleFoam -parallel
Date   : Jan 26 2022
Time   : 08:57:00
Host   : nla-gpu2.ianm.kit.edu
PID    : 2363948
I/O    : uncollated
Case   : /home/greole/data/code/ogl_labbook/motorcycle_solver/solver/Variation_mesh/Large/Variation_matrix_solver/BiCGStab_ISAI_HIP/Variation_mpiRank/4/base
nProcs : 4
Hosts  :
(
    (nla-gpu2.ianm.kit.edu 4)
)
Pstream initialized with:
    floatTransfer      : 0
    nProcsSimpleSum    : 0
    commsType          : nonBlocking
    polling iterations : 0
trapFpe: Floating point exception trapping enabled (FOAM_SIGFPE).
fileModificationChecking : Monitoring run-time modified files using timeStampMaster (fileModificationSkew 5, maxFileModificationPolls 20)
allowSystemOperations : Allowing user-supplied system call operations

// * * * * * * * * * * * * * * * * * * * * * * * * * * * * * * * * * * * * * //
Create time

Create mesh for time = 0


SIMPLE: no convergence criteria found. Calculations will run for 3 steps.

Reading field p

Reading field U

Reading/calculating face flux field phi

Selecting incompressible transport model Newtonian
Selecting turbulence model type RAS
Selecting RAS turbulence model kOmegaSST
Selecting patchDistMethod meshWave
RAS
{
    RASModel        kOmegaSST;
    turbulence      on;
    printCoeffs     on;
    alphaK1         0.85;
    alphaK2         1;
    alphaOmega1     0.5;
    alphaOmega2     0.856;
    gamma1          0.555555555556;
    gamma2          0.44;
    beta1           0.075;
    beta2           0.0828;
    betaStar        0.09;
    a1              0.31;
    b1              1;
    c1              10;
    F3              false;
    decayControl    false;
    kInf            0;
    omegaInf        0;
}

No MRF models present

No finite volume options present

Starting time loop

Time = 1

DILUPBiCGStab:  Solving for Ux, Initial residual = 0.0298408184804, Final residual = 0.000860482801151, No Iterations 4
DILUPBiCGStab:  Solving for Uy, Initial residual = 0.416436009193, Final residual = 0.0300438011241, No Iterations 3
DILUPBiCGStab:  Solving for Uz, Initial residual = 0.262309070455, Final residual = 0.010828825442, No Iterations 3
linear solve U 6639348
[OGL LOG][Proc: 0]global_index_init : 5850 mu s
[OGL LOG][Proc: 0]global_index_init : 2 mu s
[OGL LOG][Proc: 0]global_index_init : 1 mu s
[OGL LOG][Proc: 0]global_index_init : 2 mu s
[OGL LOG][Proc: 0]init_host_sparsity_pattern : 18218817 mu s
[OGL LOG][Proc: 0]update_host_matrix_data : 254617 mu s
[OGL LOG][Proc: 0]convert_coo_to_csr : 12423 mu s
[OGL LOG][Proc: 0]gather_initGuess : 69958 mu s
[OGL LOG][Proc: 0]gather_RHS : 69117 mu s
[OGL LOG][Proc: 0]gather_global_matrix : 1 mu s
[OGL LOG][Proc: 0]init_precond : 6335807 mu s
[OGL LOG][Proc: 0]generate_solver : 14 mu s
[OGL LOG][Proc: 0]solve : 1828135 mu s
[OGL LOG][Proc: 0]retrieve_result_from_device : 74304 mu s
ISAIhipGKOBiCGStab:  Solving for p, Initial residual = 1, Final residual = 0.00759707425128, No Iterations 62
linear solve p 28543908
time step continuity errors : sum local = 0.000625107595496, global = 5.68250116572e-05, cumulative = 5.68250116572e-05
DILUPBiCGStab:  Solving for omega, Initial residual = 0.00231350526681, Final residual = 5.52683233236e-05, No Iterations 1
linear solve omega 926096
bounding omega, min: -64357.1517772 max: 2809464.71271 average: 2480.24189228
DILUPBiCGStab:  Solving for k, Initial residual = 0.999999998239, Final residual = 0.0409701789775, No Iterations 1
linear solve k 925347
ExecutionTime = 153.3 s  ClockTime = 153 s

Time = 2

DILUPBiCGStab:  Solving for Ux, Initial residual = 0.0152141492163, Final residual = 0.000971832706464, No Iterations 3
DILUPBiCGStab:  Solving for Uy, Initial residual = 0.264287434946, Final residual = 0.0160766530013, No Iterations 3
DILUPBiCGStab:  Solving for Uz, Initial residual = 0.127852479161, Final residual = 0.00649082241854, No Iterations 3
linear solve U 5409928
[OGL LOG][Proc: 0]global_index_init : 141 mu s
[OGL LOG][Proc: 0]global_index_init : 2 mu s
[OGL LOG][Proc: 0]global_index_init : 2 mu s
[OGL LOG][Proc: 0]global_index_init : 2 mu s
[OGL LOG][Proc: 0]update_host_matrix_data : 216441 mu s
[OGL LOG][Proc: 0]gather_initGuess : 21279 mu s
[OGL LOG][Proc: 0]gather_RHS : 72052 mu s
[OGL LOG][Proc: 0]gather_global_matrix : 1 mu s
[OGL LOG][Proc: 0]init_precond : 6334998 mu s
[OGL LOG][Proc: 0]generate_solver : 1 mu s
[OGL LOG][Proc: 0]solve : 1855563 mu s
[OGL LOG][Proc: 0]retrieve_result_from_device : 72172 mu s
ISAIhipGKOBiCGStab:  Solving for p, Initial residual = 1, Final residual = 0.00786614969157, No Iterations 66
linear solve p 8645499
time step continuity errors : sum local = 0.0806661732777, global = 0.000176926893025, cumulative = 0.000233751904682
DILUPBiCGStab:  Solving for omega, Initial residual = 0.00164486317553, Final residual = 4.56933245547e-05, No Iterations 1
linear solve omega 930874
bounding omega, min: -208.84347023 max: 2809505.98287 average: 2816.18512932
DILUPBiCGStab:  Solving for k, Initial residual = 0.0300891833997, Final residual = 0.00114051157436, No Iterations 1
linear solve k 923232
ExecutionTime = 185.77 s  ClockTime = 186 s

Time = 3

DILUPBiCGStab:  Solving for Ux, Initial residual = 0.0613653979331, Final residual = 0.00483996107958, No Iterations 7
DILUPBiCGStab:  Solving for Uy, Initial residual = 0.468420416427, Final residual = 0.0320434553302, No Iterations 7
DILUPBiCGStab:  Solving for Uz, Initial residual = 0.441792574294, Final residual = 0.0406508443817, No Iterations 6
linear solve U 12341716
[OGL LOG][Proc: 0]global_index_init : 396 mu s
[OGL LOG][Proc: 0]global_index_init : 2 mu s
[OGL LOG][Proc: 0]global_index_init : 2 mu s
[OGL LOG][Proc: 0]global_index_init : 3 mu s
[OGL LOG][Proc: 0]update_host_matrix_data : 221288 mu s
[OGL LOG][Proc: 0]gather_initGuess : 17639 mu s
[OGL LOG][Proc: 0]gather_RHS : 63731 mu s
[OGL LOG][Proc: 0]gather_global_matrix : 1 mu s
[OGL LOG][Proc: 0]init_precond : 6334856 mu s
[OGL LOG][Proc: 0]generate_solver : 1 mu s
[OGL LOG][Proc: 0]solve : 822667 mu s
[OGL LOG][Proc: 0]retrieve_result_from_device : 71218 mu s
ISAIhipGKOBiCGStab:  Solving for p, Initial residual = 1, Final residual = 0.00956439294181, No Iterations 29
linear solve p 7609415
time step continuity errors : sum local = 2970.02282308, global = 0.000282734801184, cumulative = 0.000516486705866
DILUPBiCGStab:  Solving for omega, Initial residual = 0.0819119465584, Final residual = 0.000333193365414, No Iterations 1
linear solve omega 644402
bounding omega, min: -901.006728958 max: 2808963.504 average: 3269.34703616
DILUPBiCGStab:  Solving for k, Initial residual = 0.133076843987, Final residual = 0.000319677566321, No Iterations 1
linear solve k 925100
ExecutionTime = 223.92 s  ClockTime = 224 s

End

Finalising parallel run
================================================================================
hash: e61c3a9812db66cc388fba717958bd0e
/*---------------------------------------------------------------------------*\
| =========                 |                                                 |
| \\      /  F ield         | OpenFOAM: The Open Source CFD Toolbox           |
|  \\    /   O peration     | Version:  v2106                                 |
|   \\  /    A nd           | Website:  www.openfoam.com                      |
|    \\/     M anipulation  |                                                 |
\*---------------------------------------------------------------------------*/
Build  : f815a12bba-20210902 OPENFOAM=2106
Arch   : "LSB;label=32;scalar=64"
Exec   : simpleFoam -parallel
Date   : Jan 26 2022
Time   : 09:00:46
Host   : nla-gpu2.ianm.kit.edu
PID    : 2366075
I/O    : uncollated
Case   : /home/greole/data/code/ogl_labbook/motorcycle_solver/solver/Variation_mesh/Large/Variation_matrix_solver/BiCGStab_ISAI_HIP/Variation_mpiRank/8/base
nProcs : 8
Hosts  :
(
    (nla-gpu2.ianm.kit.edu 8)
)
Pstream initialized with:
    floatTransfer      : 0
    nProcsSimpleSum    : 0
    commsType          : nonBlocking
    polling iterations : 0
trapFpe: Floating point exception trapping enabled (FOAM_SIGFPE).
fileModificationChecking : Monitoring run-time modified files using timeStampMaster (fileModificationSkew 5, maxFileModificationPolls 20)
allowSystemOperations : Allowing user-supplied system call operations

// * * * * * * * * * * * * * * * * * * * * * * * * * * * * * * * * * * * * * //
Create time

Create mesh for time = 0


SIMPLE: no convergence criteria found. Calculations will run for 3 steps.

Reading field p

Reading field U

Reading/calculating face flux field phi

Selecting incompressible transport model Newtonian
Selecting turbulence model type RAS
Selecting RAS turbulence model kOmegaSST
Selecting patchDistMethod meshWave
RAS
{
    RASModel        kOmegaSST;
    turbulence      on;
    printCoeffs     on;
    alphaK1         0.85;
    alphaK2         1;
    alphaOmega1     0.5;
    alphaOmega2     0.856;
    gamma1          0.555555555556;
    gamma2          0.44;
    beta1           0.075;
    beta2           0.0828;
    betaStar        0.09;
    a1              0.31;
    b1              1;
    c1              10;
    F3              false;
    decayControl    false;
    kInf            0;
    omegaInf        0;
}

No MRF models present

No finite volume options present

Starting time loop

Time = 1

DILUPBiCGStab:  Solving for Ux, Initial residual = 0.0298408184793, Final residual = 0.00218216071274, No Iterations 3
DILUPBiCGStab:  Solving for Uy, Initial residual = 0.416436009197, Final residual = 0.0316946277838, No Iterations 3
DILUPBiCGStab:  Solving for Uz, Initial residual = 0.262309070484, Final residual = 0.0117523460212, No Iterations 3
linear solve U 3302552
[OGL LOG][Proc: 0]global_index_init : 28966 mu s
[OGL LOG][Proc: 0]global_index_init : 5 mu s
[OGL LOG][Proc: 0]global_index_init : 3 mu s
[OGL LOG][Proc: 0]global_index_init : 5 mu s
[OGL LOG][Proc: 0]init_host_sparsity_pattern : 47954871 mu s
[OGL LOG][Proc: 0]update_host_matrix_data : 127861 mu s
[OGL LOG][Proc: 0]convert_coo_to_csr : 12578 mu s
[OGL LOG][Proc: 0]gather_initGuess : 79188 mu s
[OGL LOG][Proc: 0]gather_RHS : 76772 mu s
[OGL LOG][Proc: 0]gather_global_matrix : 1 mu s
[OGL LOG][Proc: 0]init_precond : 6331444 mu s
[OGL LOG][Proc: 0]generate_solver : 16 mu s
[OGL LOG][Proc: 0]solve : 1644554 mu s
[OGL LOG][Proc: 0]retrieve_result_from_device : 77504 mu s
ISAIhipGKOBiCGStab:  Solving for p, Initial residual = 1, Final residual = 0.00980674489661, No Iterations 56
linear solve p 64630112
time step continuity errors : sum local = 0.000801651533848, global = 5.3926938351e-05, cumulative = 5.3926938351e-05
DILUPBiCGStab:  Solving for omega, Initial residual = 0.00231469568507, Final residual = 5.5722054794e-05, No Iterations 1
linear solve omega 543111
bounding omega, min: -63962.8673928 max: 2809464.71271 average: 2479.89829885
DILUPBiCGStab:  Solving for k, Initial residual = 0.99999999839, Final residual = 0.0429231931627, No Iterations 1
linear solve k 486936
ExecutionTime = 131.38 s  ClockTime = 132 s

Time = 2

DILUPBiCGStab:  Solving for Ux, Initial residual = 0.0151518447948, Final residual = 0.000997202925166, No Iterations 3
DILUPBiCGStab:  Solving for Uy, Initial residual = 0.261776513944, Final residual = 0.0199269415704, No Iterations 3
DILUPBiCGStab:  Solving for Uz, Initial residual = 0.126164528749, Final residual = 0.00648578037514, No Iterations 3
linear solve U 2798944
[OGL LOG][Proc: 0]global_index_init : 2092 mu s
[OGL LOG][Proc: 0]global_index_init : 6 mu s
[OGL LOG][Proc: 0]global_index_init : 5 mu s
[OGL LOG][Proc: 0]global_index_init : 5 mu s
[OGL LOG][Proc: 0]update_host_matrix_data : 110084 mu s
[OGL LOG][Proc: 0]gather_initGuess : 18966 mu s
[OGL LOG][Proc: 0]gather_RHS : 80111 mu s
[OGL LOG][Proc: 0]gather_global_matrix : 1 mu s
[OGL LOG][Proc: 0]init_precond : 6330531 mu s
[OGL LOG][Proc: 0]generate_solver : 1 mu s
[OGL LOG][Proc: 0]solve : 1713243 mu s
[OGL LOG][Proc: 0]retrieve_result_from_device : 76137 mu s
ISAIhipGKOBiCGStab:  Solving for p, Initial residual = 1, Final residual = 0.00983535814751, No Iterations 61
linear solve p 8374516
time step continuity errors : sum local = 0.0951544394306, global = 0.000203166945707, cumulative = 0.000257093884058
DILUPBiCGStab:  Solving for omega, Initial residual = 0.00174011335007, Final residual = 4.54880988108e-05, No Iterations 1
linear solve omega 536659
bounding omega, min: -205.687106616 max: 2809558.88384 average: 2821.17782153
DILUPBiCGStab:  Solving for k, Initial residual = 0.0309417427928, Final residual = 0.00117372402635, No Iterations 1
linear solve k 489759
ExecutionTime = 152.14 s  ClockTime = 152 s

Time = 3

DILUPBiCGStab:  Solving for Ux, Initial residual = 0.0801054744343, Final residual = 0.0074590575453, No Iterations 7
DILUPBiCGStab:  Solving for Uy, Initial residual = 0.497570110803, Final residual = 0.0412864431278, No Iterations 10
DILUPBiCGStab:  Solving for Uz, Initial residual = 0.451738312987, Final residual = 0.0436185173783, No Iterations 7
linear solve U 7315296
[OGL LOG][Proc: 0]global_index_init : 1977 mu s
[OGL LOG][Proc: 0]global_index_init : 3 mu s
[OGL LOG][Proc: 0]global_index_init : 7 mu s
[OGL LOG][Proc: 0]global_index_init : 3 mu s
[OGL LOG][Proc: 0]update_host_matrix_data : 110264 mu s
[OGL LOG][Proc: 0]gather_initGuess : 20454 mu s
[OGL LOG][Proc: 0]gather_RHS : 74699 mu s
[OGL LOG][Proc: 0]gather_global_matrix : 1 mu s
[OGL LOG][Proc: 0]init_precond : 6329574 mu s
[OGL LOG][Proc: 0]generate_solver : 1 mu s
[OGL LOG][Proc: 0]solve : 1490160 mu s
[OGL LOG][Proc: 0]retrieve_result_from_device : 72365 mu s
ISAIhipGKOBiCGStab:  Solving for p, Initial residual = 1, Final residual = 0.00988511201519, No Iterations 53
linear solve p 8137812
time step continuity errors : sum local = 4033.86846721, global = 0.0005382916483, cumulative = 0.000795385532358
DILUPBiCGStab:  Solving for omega, Initial residual = 0.0994282058466, Final residual = 0.000469832773886, No Iterations 1
linear solve omega 407673
bounding omega, min: -811.437786894 max: 2809017.79046 average: 3325.39985231
DILUPBiCGStab:  Solving for k, Initial residual = 0.131799974059, Final residual = 0.000285238354415, No Iterations 1
linear solve k 484634
ExecutionTime = 177.1 s  ClockTime = 177 s

End

Finalising parallel run
================================================================================
hash: 68770c6e6041b5f5fa23af29d4b78ff2
/*---------------------------------------------------------------------------*\
| =========                 |                                                 |
| \\      /  F ield         | OpenFOAM: The Open Source CFD Toolbox           |
|  \\    /   O peration     | Version:  v2106                                 |
|   \\  /    A nd           | Website:  www.openfoam.com                      |
|    \\/     M anipulation  |                                                 |
\*---------------------------------------------------------------------------*/
Build  : f815a12bba-20210902 OPENFOAM=2106
Arch   : "LSB;label=32;scalar=64"
Exec   : simpleFoam -parallel
Date   : Jan 26 2022
Time   : 09:03:45
Host   : nla-gpu2.ianm.kit.edu
PID    : 2367764
I/O    : uncollated
Case   : /home/greole/data/code/ogl_labbook/motorcycle_solver/solver/Variation_mesh/Large/Variation_matrix_solver/BiCGStab_BJ_HIP/Variation_mpiRank/16/base
nProcs : 16
Hosts  :
(
    (nla-gpu2.ianm.kit.edu 16)
)
Pstream initialized with:
    floatTransfer      : 0
    nProcsSimpleSum    : 0
    commsType          : nonBlocking
    polling iterations : 0
trapFpe: Floating point exception trapping enabled (FOAM_SIGFPE).
fileModificationChecking : Monitoring run-time modified files using timeStampMaster (fileModificationSkew 5, maxFileModificationPolls 20)
allowSystemOperations : Allowing user-supplied system call operations

// * * * * * * * * * * * * * * * * * * * * * * * * * * * * * * * * * * * * * //
Create time

Create mesh for time = 0


SIMPLE: no convergence criteria found. Calculations will run for 3 steps.

Reading field p

Reading field U

Reading/calculating face flux field phi

Selecting incompressible transport model Newtonian
Selecting turbulence model type RAS
Selecting RAS turbulence model kOmegaSST
Selecting patchDistMethod meshWave
RAS
{
    RASModel        kOmegaSST;
    turbulence      on;
    printCoeffs     on;
    alphaK1         0.85;
    alphaK2         1;
    alphaOmega1     0.5;
    alphaOmega2     0.856;
    gamma1          0.555555555556;
    gamma2          0.44;
    beta1           0.075;
    beta2           0.0828;
    betaStar        0.09;
    a1              0.31;
    b1              1;
    c1              10;
    F3              false;
    decayControl    false;
    kInf            0;
    omegaInf        0;
}

No MRF models present

No finite volume options present

Starting time loop

Time = 1

DILUPBiCGStab:  Solving for Ux, Initial residual = 0.029840818522, Final residual = 0.000890765537447, No Iterations 4
DILUPBiCGStab:  Solving for Uy, Initial residual = 0.416436009777, Final residual = 0.0325999042504, No Iterations 3
DILUPBiCGStab:  Solving for Uz, Initial residual = 0.262309070745, Final residual = 0.0119350495045, No Iterations 3
linear solve U 2099543
[OGL LOG][Proc: 0]global_index_init : 181931 mu s
[OGL LOG][Proc: 0]global_index_init : 5 mu s
[OGL LOG][Proc: 0]global_index_init : 4 mu s
[OGL LOG][Proc: 0]global_index_init : 6 mu s
[OGL LOG][Proc: 0]init_host_sparsity_pattern : 30127385 mu s
[OGL LOG][Proc: 0]update_host_matrix_data : 95856 mu s
[OGL LOG][Proc: 0]convert_coo_to_csr : 12003 mu s
[OGL LOG][Proc: 0]gather_initGuess : 153376 mu s
[OGL LOG][Proc: 0]gather_RHS : 160519 mu s
[OGL LOG][Proc: 0]gather_global_matrix : 0 mu s
[OGL LOG][Proc: 0]init_precond : 47926 mu s
[OGL LOG][Proc: 0]generate_solver : 14 mu s
[OGL LOG][Proc: 0]solve : 4396789 mu s
[OGL LOG][Proc: 0]retrieve_result_from_device : 86596 mu s
BJhipGKOBiCGStab:  Solving for p, Initial residual = 1, Final residual = 0.00997100460317, No Iterations 106
linear solve p 44909341
time step continuity errors : sum local = 0.000824141796853, global = 6.29790355105e-05, cumulative = 6.29790355105e-05
DILUPBiCGStab:  Solving for omega, Initial residual = 0.00231349780706, Final residual = 5.61801145309e-05, No Iterations 1
linear solve omega 359092
bounding omega, min: -64384.6333826 max: 2809464.71271 average: 2479.68217379
DILUPBiCGStab:  Solving for k, Initial residual = 0.99999999869, Final residual = 0.0418686986163, No Iterations 1
linear solve k 297956
ExecutionTime = 82.69 s  ClockTime = 83 s

Time = 2

DILUPBiCGStab:  Solving for Ux, Initial residual = 0.0152344045665, Final residual = 0.00104124445518, No Iterations 3
DILUPBiCGStab:  Solving for Uy, Initial residual = 0.264291106704, Final residual = 0.0178393194163, No Iterations 3
DILUPBiCGStab:  Solving for Uz, Initial residual = 0.127659193846, Final residual = 0.00664566420862, No Iterations 3
linear solve U 1757021
[OGL LOG][Proc: 0]global_index_init : 1624 mu s
[OGL LOG][Proc: 0]global_index_init : 5 mu s
[OGL LOG][Proc: 0]global_index_init : 9 mu s
[OGL LOG][Proc: 0]global_index_init : 7 mu s
[OGL LOG][Proc: 0]update_host_matrix_data : 83701 mu s
[OGL LOG][Proc: 0]gather_initGuess : 18073 mu s
[OGL LOG][Proc: 0]gather_RHS : 151542 mu s
[OGL LOG][Proc: 0]gather_global_matrix : 0 mu s
[OGL LOG][Proc: 0]init_precond : 19711 mu s
[OGL LOG][Proc: 0]generate_solver : 0 mu s
[OGL LOG][Proc: 0]solve : 3836269 mu s
[OGL LOG][Proc: 0]retrieve_result_from_device : 76773 mu s
BJhipGKOBiCGStab:  Solving for p, Initial residual = 1, Final residual = 0.00951937119469, No Iterations 96
linear solve p 4257217
time step continuity errors : sum local = 0.105962878166, global = 0.00021902557484, cumulative = 0.00028200461035
DILUPBiCGStab:  Solving for omega, Initial residual = 0.00180663442236, Final residual = 4.55426975363e-05, No Iterations 1
linear solve omega 360831
bounding omega, min: -243.420821782 max: 2809501.06037 average: 2821.78315011
DILUPBiCGStab:  Solving for k, Initial residual = 0.0316382083976, Final residual = 0.00114813544568, No Iterations 1
linear solve k 306669
ExecutionTime = 94.76 s  ClockTime = 95 s

Time = 3

DILUPBiCGStab:  Solving for Ux, Initial residual = 0.074755889533, Final residual = 0.00521038782511, No Iterations 8
DILUPBiCGStab:  Solving for Uy, Initial residual = 0.503434761974, Final residual = 0.0454424577762, No Iterations 7
DILUPBiCGStab:  Solving for Uz, Initial residual = 0.480732426538, Final residual = 0.0378029226918, No Iterations 7
linear solve U 4220976
[OGL LOG][Proc: 0]global_index_init : 1710 mu s
[OGL LOG][Proc: 0]global_index_init : 6 mu s
[OGL LOG][Proc: 0]global_index_init : 5 mu s
[OGL LOG][Proc: 0]global_index_init : 6 mu s
[OGL LOG][Proc: 0]update_host_matrix_data : 83678 mu s
[OGL LOG][Proc: 0]gather_initGuess : 17949 mu s
[OGL LOG][Proc: 0]gather_RHS : 111891 mu s
[OGL LOG][Proc: 0]gather_global_matrix : 0 mu s
[OGL LOG][Proc: 0]init_precond : 19399 mu s
[OGL LOG][Proc: 0]generate_solver : 0 mu s
[OGL LOG][Proc: 0]solve : 2107059 mu s
[OGL LOG][Proc: 0]retrieve_result_from_device : 71142 mu s
BJhipGKOBiCGStab:  Solving for p, Initial residual = 1, Final residual = 0.00828629825619, No Iterations 51
linear solve p 2434005
time step continuity errors : sum local = 4111.27544433, global = 0.000272396326026, cumulative = 0.000554400936376
DILUPBiCGStab:  Solving for omega, Initial residual = 0.0877915409315, Final residual = 0.000366966851907, No Iterations 1
linear solve omega 269615
DILUPBiCGStab:  Solving for k, Initial residual = 0.134000959627, Final residual = 0.000303146636157, No Iterations 1
linear solve k 306260
ExecutionTime = 107.22 s  ClockTime = 107 s

End

Finalising parallel run
================================================================================
hash: 306ad9d58c9fa2ab87324fe79a1604af
/*---------------------------------------------------------------------------*\
| =========                 |                                                 |
| \\      /  F ield         | OpenFOAM: The Open Source CFD Toolbox           |
|  \\    /   O peration     | Version:  v2106                                 |
|   \\  /    A nd           | Website:  www.openfoam.com                      |
|    \\/     M anipulation  |                                                 |
\*---------------------------------------------------------------------------*/
Build  : f815a12bba-20210902 OPENFOAM=2106
Arch   : "LSB;label=32;scalar=64"
Exec   : simpleFoam -parallel
Date   : Jan 26 2022
Time   : 09:05:37
Host   : nla-gpu2.ianm.kit.edu
PID    : 2368948
I/O    : uncollated
Case   : /home/greole/data/code/ogl_labbook/motorcycle_solver/solver/Variation_mesh/Large/Variation_matrix_solver/BiCGStab_BJ_HIP/Variation_mpiRank/4/base
nProcs : 4
Hosts  :
(
    (nla-gpu2.ianm.kit.edu 4)
)
Pstream initialized with:
    floatTransfer      : 0
    nProcsSimpleSum    : 0
    commsType          : nonBlocking
    polling iterations : 0
trapFpe: Floating point exception trapping enabled (FOAM_SIGFPE).
fileModificationChecking : Monitoring run-time modified files using timeStampMaster (fileModificationSkew 5, maxFileModificationPolls 20)
allowSystemOperations : Allowing user-supplied system call operations

// * * * * * * * * * * * * * * * * * * * * * * * * * * * * * * * * * * * * * //
Create time

Create mesh for time = 0


SIMPLE: no convergence criteria found. Calculations will run for 3 steps.

Reading field p

Reading field U

Reading/calculating face flux field phi

Selecting incompressible transport model Newtonian
Selecting turbulence model type RAS
Selecting RAS turbulence model kOmegaSST
Selecting patchDistMethod meshWave
RAS
{
    RASModel        kOmegaSST;
    turbulence      on;
    printCoeffs     on;
    alphaK1         0.85;
    alphaK2         1;
    alphaOmega1     0.5;
    alphaOmega2     0.856;
    gamma1          0.555555555556;
    gamma2          0.44;
    beta1           0.075;
    beta2           0.0828;
    betaStar        0.09;
    a1              0.31;
    b1              1;
    c1              10;
    F3              false;
    decayControl    false;
    kInf            0;
    omegaInf        0;
}

No MRF models present

No finite volume options present

Starting time loop

Time = 1

DILUPBiCGStab:  Solving for Ux, Initial residual = 0.0298408184804, Final residual = 0.000860482801151, No Iterations 4
DILUPBiCGStab:  Solving for Uy, Initial residual = 0.416436009193, Final residual = 0.0300438011241, No Iterations 3
DILUPBiCGStab:  Solving for Uz, Initial residual = 0.262309070455, Final residual = 0.010828825442, No Iterations 3
linear solve U 6641090
[OGL LOG][Proc: 0]global_index_init : 4878 mu s
[OGL LOG][Proc: 0]global_index_init : 2 mu s
[OGL LOG][Proc: 0]global_index_init : 2 mu s
[OGL LOG][Proc: 0]global_index_init : 2 mu s
[OGL LOG][Proc: 0]init_host_sparsity_pattern : 18110545 mu s
[OGL LOG][Proc: 0]update_host_matrix_data : 258712 mu s
[OGL LOG][Proc: 0]convert_coo_to_csr : 12519 mu s
[OGL LOG][Proc: 0]gather_initGuess : 69840 mu s
[OGL LOG][Proc: 0]gather_RHS : 68741 mu s
[OGL LOG][Proc: 0]gather_global_matrix : 0 mu s
[OGL LOG][Proc: 0]init_precond : 47673 mu s
[OGL LOG][Proc: 0]generate_solver : 15 mu s
[OGL LOG][Proc: 0]solve : 2337716 mu s
[OGL LOG][Proc: 0]retrieve_result_from_device : 72899 mu s
BJhipGKOBiCGStab:  Solving for p, Initial residual = 1, Final residual = 0.00792415445085, No Iterations 115
linear solve p 22669683
time step continuity errors : sum local = 0.000652020629425, global = 6.04091603967e-05, cumulative = 6.04091603967e-05
DILUPBiCGStab:  Solving for omega, Initial residual = 0.00231323271137, Final residual = 5.52702044324e-05, No Iterations 1
linear solve omega 921343
bounding omega, min: -64354.0198197 max: 2809464.71271 average: 2480.09813307
DILUPBiCGStab:  Solving for k, Initial residual = 0.999999998237, Final residual = 0.0409701775826, No Iterations 1
linear solve k 929304
ExecutionTime = 147.54 s  ClockTime = 148 s

Time = 2

DILUPBiCGStab:  Solving for Ux, Initial residual = 0.0152220243672, Final residual = 0.000972716303211, No Iterations 3
DILUPBiCGStab:  Solving for Uy, Initial residual = 0.264256884867, Final residual = 0.01608180462, No Iterations 3
DILUPBiCGStab:  Solving for Uz, Initial residual = 0.127807640139, Final residual = 0.00648953055827, No Iterations 3
linear solve U 5410841
[OGL LOG][Proc: 0]global_index_init : 788 mu s
[OGL LOG][Proc: 0]global_index_init : 4 mu s
[OGL LOG][Proc: 0]global_index_init : 2 mu s
[OGL LOG][Proc: 0]global_index_init : 2 mu s
[OGL LOG][Proc: 0]update_host_matrix_data : 217109 mu s
[OGL LOG][Proc: 0]gather_initGuess : 21417 mu s
[OGL LOG][Proc: 0]gather_RHS : 64504 mu s
[OGL LOG][Proc: 0]gather_global_matrix : 1 mu s
[OGL LOG][Proc: 0]init_precond : 19096 mu s
[OGL LOG][Proc: 0]generate_solver : 1 mu s
[OGL LOG][Proc: 0]solve : 1887805 mu s
[OGL LOG][Proc: 0]retrieve_result_from_device : 72494 mu s
BJhipGKOBiCGStab:  Solving for p, Initial residual = 1, Final residual = 0.00959644777464, No Iterations 98
linear solve p 2355576
time step continuity errors : sum local = 0.0807661548113, global = 0.000225510896995, cumulative = 0.000285920057392
DILUPBiCGStab:  Solving for omega, Initial residual = 0.00164259659648, Final residual = 4.53233917104e-05, No Iterations 1
linear solve omega 935894
bounding omega, min: -203.481727856 max: 2809506.11472 average: 2816.27885672
DILUPBiCGStab:  Solving for k, Initial residual = 0.0300881395102, Final residual = 0.00114115030905, No Iterations 1
linear solve k 928032
ExecutionTime = 173.74 s  ClockTime = 174 s

Time = 3

DILUPBiCGStab:  Solving for Ux, Initial residual = 0.060488056806, Final residual = 0.00499308434191, No Iterations 7
DILUPBiCGStab:  Solving for Uy, Initial residual = 0.468237403282, Final residual = 0.0311450296895, No Iterations 7
DILUPBiCGStab:  Solving for Uz, Initial residual = 0.438760133611, Final residual = 0.0380206432581, No Iterations 7
linear solve U 12536762
[OGL LOG][Proc: 0]global_index_init : 441 mu s
[OGL LOG][Proc: 0]global_index_init : 3 mu s
[OGL LOG][Proc: 0]global_index_init : 2 mu s
[OGL LOG][Proc: 0]global_index_init : 2 mu s
[OGL LOG][Proc: 0]update_host_matrix_data : 218157 mu s
[OGL LOG][Proc: 0]gather_initGuess : 17805 mu s
[OGL LOG][Proc: 0]gather_RHS : 63247 mu s
[OGL LOG][Proc: 0]gather_global_matrix : 2 mu s
[OGL LOG][Proc: 0]init_precond : 19130 mu s
[OGL LOG][Proc: 0]generate_solver : 1 mu s
[OGL LOG][Proc: 0]solve : 961418 mu s
[OGL LOG][Proc: 0]retrieve_result_from_device : 72883 mu s
BJhipGKOBiCGStab:  Solving for p, Initial residual = 1, Final residual = 0.00945846318182, No Iterations 50
linear solve p 1426022
time step continuity errors : sum local = 2966.32636485, global = 0.000305822784035, cumulative = 0.000591742841427
DILUPBiCGStab:  Solving for omega, Initial residual = 0.0815456948687, Final residual = 0.00033441272622, No Iterations 1
linear solve omega 662927
bounding omega, min: -902.012642923 max: 2808965.34659 average: 3268.53021472
DILUPBiCGStab:  Solving for k, Initial residual = 0.133218646675, Final residual = 0.000323107786456, No Iterations 1
linear solve k 926745
ExecutionTime = 205.8 s  ClockTime = 206 s

End

Finalising parallel run
================================================================================
hash: 2f291f7a0d92e6272d17069d57405ba4
/*---------------------------------------------------------------------------*\
| =========                 |                                                 |
| \\      /  F ield         | OpenFOAM: The Open Source CFD Toolbox           |
|  \\    /   O peration     | Version:  v2106                                 |
|   \\  /    A nd           | Website:  www.openfoam.com                      |
|    \\/     M anipulation  |                                                 |
\*---------------------------------------------------------------------------*/
Build  : f815a12bba-20210902 OPENFOAM=2106
Arch   : "LSB;label=32;scalar=64"
Exec   : simpleFoam -parallel
Date   : Jan 26 2022
Time   : 09:09:05
Host   : nla-gpu2.ianm.kit.edu
PID    : 2370921
I/O    : uncollated
Case   : /home/greole/data/code/ogl_labbook/motorcycle_solver/solver/Variation_mesh/Large/Variation_matrix_solver/BiCGStab_BJ_HIP/Variation_mpiRank/8/base
nProcs : 8
Hosts  :
(
    (nla-gpu2.ianm.kit.edu 8)
)
Pstream initialized with:
    floatTransfer      : 0
    nProcsSimpleSum    : 0
    commsType          : nonBlocking
    polling iterations : 0
trapFpe: Floating point exception trapping enabled (FOAM_SIGFPE).
fileModificationChecking : Monitoring run-time modified files using timeStampMaster (fileModificationSkew 5, maxFileModificationPolls 20)
allowSystemOperations : Allowing user-supplied system call operations

// * * * * * * * * * * * * * * * * * * * * * * * * * * * * * * * * * * * * * //
Create time

Create mesh for time = 0


SIMPLE: no convergence criteria found. Calculations will run for 3 steps.

Reading field p

Reading field U

Reading/calculating face flux field phi

Selecting incompressible transport model Newtonian
Selecting turbulence model type RAS
Selecting RAS turbulence model kOmegaSST
Selecting patchDistMethod meshWave
RAS
{
    RASModel        kOmegaSST;
    turbulence      on;
    printCoeffs     on;
    alphaK1         0.85;
    alphaK2         1;
    alphaOmega1     0.5;
    alphaOmega2     0.856;
    gamma1          0.555555555556;
    gamma2          0.44;
    beta1           0.075;
    beta2           0.0828;
    betaStar        0.09;
    a1              0.31;
    b1              1;
    c1              10;
    F3              false;
    decayControl    false;
    kInf            0;
    omegaInf        0;
}

No MRF models present

No finite volume options present

Starting time loop

Time = 1

DILUPBiCGStab:  Solving for Ux, Initial residual = 0.0298408184793, Final residual = 0.00218216071274, No Iterations 3
DILUPBiCGStab:  Solving for Uy, Initial residual = 0.416436009197, Final residual = 0.0316946277838, No Iterations 3
DILUPBiCGStab:  Solving for Uz, Initial residual = 0.262309070484, Final residual = 0.0117523460212, No Iterations 3
linear solve U 3289542
[OGL LOG][Proc: 0]global_index_init : 29256 mu s
[OGL LOG][Proc: 0]global_index_init : 4 mu s
[OGL LOG][Proc: 0]global_index_init : 4 mu s
[OGL LOG][Proc: 0]global_index_init : 4 mu s
[OGL LOG][Proc: 0]init_host_sparsity_pattern : 47959888 mu s
[OGL LOG][Proc: 0]update_host_matrix_data : 128285 mu s
[OGL LOG][Proc: 0]convert_coo_to_csr : 12406 mu s
[OGL LOG][Proc: 0]gather_initGuess : 78637 mu s
[OGL LOG][Proc: 0]gather_RHS : 75512 mu s
[OGL LOG][Proc: 0]gather_global_matrix : 1 mu s
[OGL LOG][Proc: 0]init_precond : 47589 mu s
[OGL LOG][Proc: 0]generate_solver : 16 mu s
[OGL LOG][Proc: 0]solve : 2172776 mu s
[OGL LOG][Proc: 0]retrieve_result_from_device : 72015 mu s
BJhipGKOBiCGStab:  Solving for p, Initial residual = 1, Final residual = 0.00893831919247, No Iterations 107
linear solve p 59005757
time step continuity errors : sum local = 0.000730662147962, global = 4.58548525772e-05, cumulative = 4.58548525772e-05
DILUPBiCGStab:  Solving for omega, Initial residual = 0.00231443361585, Final residual = 5.57255634476e-05, No Iterations 1
linear solve omega 543966
bounding omega, min: -64043.319635 max: 2809464.71271 average: 2479.97229909
DILUPBiCGStab:  Solving for k, Initial residual = 0.999999998383, Final residual = 0.0429213031552, No Iterations 1
linear solve k 485569
ExecutionTime = 126.51 s  ClockTime = 127 s

Time = 2

DILUPBiCGStab:  Solving for Ux, Initial residual = 0.0151522307215, Final residual = 0.000998311118059, No Iterations 3
DILUPBiCGStab:  Solving for Uy, Initial residual = 0.261497648152, Final residual = 0.0196032398637, No Iterations 3
DILUPBiCGStab:  Solving for Uz, Initial residual = 0.126359935428, Final residual = 0.00650419488874, No Iterations 3
linear solve U 2789959
[OGL LOG][Proc: 0]global_index_init : 1782 mu s
[OGL LOG][Proc: 0]global_index_init : 4 mu s
[OGL LOG][Proc: 0]global_index_init : 5 mu s
[OGL LOG][Proc: 0]global_index_init : 5 mu s
[OGL LOG][Proc: 0]update_host_matrix_data : 110478 mu s
[OGL LOG][Proc: 0]gather_initGuess : 18021 mu s
[OGL LOG][Proc: 0]gather_RHS : 75468 mu s
[OGL LOG][Proc: 0]gather_global_matrix : 1 mu s
[OGL LOG][Proc: 0]init_precond : 19058 mu s
[OGL LOG][Proc: 0]generate_solver : 1 mu s
[OGL LOG][Proc: 0]solve : 1928388 mu s
[OGL LOG][Proc: 0]retrieve_result_from_device : 72899 mu s
BJhipGKOBiCGStab:  Solving for p, Initial residual = 1, Final residual = 0.00940811304241, No Iterations 100
linear solve p 2263238
[...]

No finite volume options present

Starting time loop

Time = 1

DILUPBiCGStab:  Solving for Ux, Initial residual = 0.029840818522, Final residual = 0.000890765537447, No Iterations 4
DILUPBiCGStab:  Solving for Uy, Initial residual = 0.416436009777, Final residual = 0.0325999042504, No Iterations 3
DILUPBiCGStab:  Solving for Uz, Initial residual = 0.262309070745, Final residual = 0.0119350495045, No Iterations 3
linear solve U 2112176
[OGL LOG][Proc: 0]global_index_init : 100795 mu s
[OGL LOG][Proc: 0]global_index_init : 4 mu s
[OGL LOG][Proc: 0]global_index_init : 7 mu s
[OGL LOG][Proc: 0]global_index_init : 6 mu s
[OGL LOG][Proc: 0]init_host_sparsity_pattern : 29819422 mu s
[OGL LOG][Proc: 0]update_host_matrix_data : 96509 mu s
[OGL LOG][Proc: 0]convert_coo_to_csr : 153175 mu s
[OGL LOG][Proc: 0]gather_initGuess : 82218 mu s
[OGL LOG][Proc: 0]gather_RHS : 90820 mu s
[OGL LOG][Proc: 0]gather_global_matrix : 0 mu s
[OGL LOG][Proc: 0]init_precond : 8104606 mu s
[OGL LOG][Proc: 0]generate_solver : 4 mu s
[OGL LOG][Proc: 0]solve : 10186064 mu s
[OGL LOG][Proc: 0]retrieve_result_from_device : 107946 mu s
MultigridhipGKOCG:  Solving for p, Initial residual = 1, Final residual = 0.00934663135455, No Iterations 26
linear solve p 58923038
time step continuity errors : sum local = 0.000772534951655, global = 1.39663550195e-05, cumulative = 1.39663550195e-05
DILUPBiCGStab:  Solving for omega, Initial residual = 0.00231321778532, Final residual = 5.61371938447e-05, No Iterations 1
linear solve omega 358970
bounding omega, min: -64442.2883222 max: 2809464.71271 average: 2480.46150464
DILUPBiCGStab:  Solving for k, Initial residual = 0.999999998677, Final residual = 0.0418573770038, No Iterations 1
linear solve k 306531
ExecutionTime = 96.93 s  ClockTime = 97 s

Time = 2

DILUPBiCGStab:  Solving for Ux, Initial residual = 0.0152753132557, Final residual = 0.00104731770148, No Iterations 3
DILUPBiCGStab:  Solving for Uy, Initial residual = 0.263780758586, Final residual = 0.0177767492832, No Iterations 3
DILUPBiCGStab:  Solving for Uz, Initial residual = 0.131411886781, Final residual = 0.00685371693933, No Iterations 3
linear solve U 1762973
[OGL LOG][Proc: 0]global_index_init : 1661 mu s
[OGL LOG][Proc: 0]global_index_init : 4 mu s
[OGL LOG][Proc: 0]global_index_init : 6 mu s
[OGL LOG][Proc: 0]global_index_init : 8 mu s
[OGL LOG][Proc: 0]update_host_matrix_data : 81947 mu s
[OGL LOG][Proc: 0]gather_initGuess : 158847 mu s
[OGL LOG][Proc: 0]gather_RHS : 77794 mu s
[OGL LOG][Proc: 0]gather_global_matrix : 0 mu s
[OGL LOG][Proc: 0]init_precond : 7865533 mu s
[OGL LOG][Proc: 0]generate_solver : 0 mu s
[OGL LOG][Proc: 0]solve : 9510985 mu s
[OGL LOG][Proc: 0]retrieve_result_from_device : 76265 mu s
MultigridhipGKOCG:  Solving for p, Initial residual = 1, Final residual = 0.00984204725285, No Iterations 24
linear solve p 17864808
time step continuity errors : sum local = 0.104838546914, global = -2.89053597158e-05, cumulative = -1.49390046963e-05
DILUPBiCGStab:  Solving for omega, Initial residual = 0.00177379609051, Final residual = 4.48109623346e-05, No Iterations 1
linear solve omega 363671
bounding omega, min: -228.27345056 max: 2809501.33508 average: 2822.13156151
DILUPBiCGStab:  Solving for k, Initial residual = 0.0316447164478, Final residual = 0.0011504964941, No Iterations 1
linear solve k 306341
ExecutionTime = 122.8 s  ClockTime = 122 s

Time = 3

DILUPBiCGStab:  Solving for Ux, Initial residual = 0.0681207208641, Final residual = 0.00598753072222, No Iterations 7
DILUPBiCGStab:  Solving for Uy, Initial residual = 0.49908809586, Final residual = 0.0347815998182, No Iterations 7
DILUPBiCGStab:  Solving for Uz, Initial residual = 0.481312202239, Final residual = 0.0291419397379, No Iterations 8
linear solve U 4314806
[OGL LOG][Proc: 0]global_index_init : 1957 mu s
[OGL LOG][Proc: 0]global_index_init : 6 mu s
[OGL LOG][Proc: 0]global_index_init : 9 mu s
[OGL LOG][Proc: 0]global_index_init : 7 mu s
[OGL LOG][Proc: 0]update_host_matrix_data : 84405 mu s
[OGL LOG][Proc: 0]gather_initGuess : 83001 mu s
[OGL LOG][Proc: 0]gather_RHS : 169251 mu s
[OGL LOG][Proc: 0]gather_global_matrix : 0 mu s
[OGL LOG][Proc: 0]init_precond : 7960460 mu s
[OGL LOG][Proc: 0]generate_solver : 0 mu s
[OGL LOG][Proc: 0]solve : 7829710 mu s
[OGL LOG][Proc: 0]retrieve_result_from_device : 70105 mu s
MultigridhipGKOCG:  Solving for p, Initial residual = 1, Final residual = 0.00266308435536, No Iterations 20
linear solve p 16222355
time step continuity errors : sum local = 4053.50245176, global = -0.0194347686411, cumulative = -0.0194497076458
DILUPBiCGStab:  Solving for omega, Initial residual = 0.0861279850004, Final residual = 0.000373358228544, No Iterations 1
linear solve omega 271769
DILUPBiCGStab:  Solving for k, Initial residual = 0.130707343667, Final residual = 0.000294011326858, No Iterations 1
linear solve k 305703
ExecutionTime = 149.35 s  ClockTime = 149 s

End

Finalising parallel run
================================================================================
hash: 7815ced624c9ad59ce1c5f0669b1bc38
/*---------------------------------------------------------------------------*\
| =========                 |                                                 |
| \\      /  F ield         | OpenFOAM: The Open Source CFD Toolbox           |
|  \\    /   O peration     | Version:  v2106                                 |
|   \\  /    A nd           | Website:  www.openfoam.com                      |
|    \\/     M anipulation  |                                                 |
\*---------------------------------------------------------------------------*/
Build  : f815a12bba-20210902 OPENFOAM=2106
Arch   : "LSB;label=32;scalar=64"
Exec   : simpleFoam -parallel
Date   : Jan 26 2022
Time   : 09:47:56
Host   : nla-gpu2.ianm.kit.edu
PID    : 2394326
I/O    : uncollated
Case   : /home/greole/data/code/ogl_labbook/motorcycle_solver/solver/Variation_mesh/Large/Variation_matrix_solver/CG_Multigrid_HIP/Variation_mpiRank/32/base
nProcs : 32
Hosts  :
(
    (nla-gpu2.ianm.kit.edu 32)
)
Pstream initialized with:
    floatTransfer      : 0
    nProcsSimpleSum    : 0
    commsType          : nonBlocking
    polling iterations : 0
trapFpe: Floating point exception trapping enabled (FOAM_SIGFPE).
fileModificationChecking : Monitoring run-time modified files using timeStampMaster (fileModificationSkew 5, maxFileModificationPolls 20)
allowSystemOperations : Allowing user-supplied system call operations

// * * * * * * * * * * * * * * * * * * * * * * * * * * * * * * * * * * * * * //
Create time

Create mesh for time = 0


SIMPLE: no convergence criteria found. Calculations will run for 3 steps.

Reading field p

Reading field U

Reading/calculating face flux field phi

Selecting incompressible transport model Newtonian
Selecting turbulence model type RAS
Selecting RAS turbulence model kOmegaSST
Selecting patchDistMethod meshWave
RAS
{
    RASModel        kOmegaSST;
    turbulence      on;
    printCoeffs     on;
    alphaK1         0.85;
    alphaK2         1;
    alphaOmega1     0.5;
    alphaOmega2     0.856;
    gamma1          0.555555555556;
    gamma2          0.44;
    beta1           0.075;
    beta2           0.0828;
    betaStar        0.09;
    a1              0.31;
    b1              1;
    c1              10;
    F3              false;
    decayControl    false;
    kInf            0;
    omegaInf        0;
}

No MRF models present

No finite volume options present

Starting time loop

Time = 1

DILUPBiCGStab:  Solving for Ux, Initial residual = 0.0298408185319, Final residual = 0.0023442936585, No Iterations 3
DILUPBiCGStab:  Solving for Uy, Initial residual = 0.416436010106, Final residual = 0.0343159774748, No Iterations 3
DILUPBiCGStab:  Solving for Uz, Initial residual = 0.262309071038, Final residual = 0.0121250711235, No Iterations 3
linear solve U 1621334
[OGL LOG][Proc: 0]global_index_init : 372288 mu s
[OGL LOG][Proc: 0]global_index_init : 9 mu s
[OGL LOG][Proc: 0]global_index_init : 9 mu s
[OGL LOG][Proc: 0]global_index_init : 7 mu s
[OGL LOG][Proc: 0]init_host_sparsity_pattern : 6036822 mu s
[OGL LOG][Proc: 0]update_host_matrix_data : 45798 mu s
[OGL LOG][Proc: 0]convert_coo_to_csr : 12286 mu s
[OGL LOG][Proc: 0]gather_initGuess : 306540 mu s
[OGL LOG][Proc: 0]gather_RHS : 333811 mu s
[OGL LOG][Proc: 0]gather_global_matrix : 1 mu s
[OGL LOG][Proc: 0]init_precond : 15827373 mu s
[OGL LOG][Proc: 0]generate_solver : 6 mu s
[OGL LOG][Proc: 0]solve : 19942371 mu s
[OGL LOG][Proc: 0]retrieve_result_from_device : 188286 mu s
MultigridhipGKOCG:  Solving for p, Initial residual = 1, Final residual = 0.00901412143126, No Iterations 26
linear solve p 59268293
time step continuity errors : sum local = 0.000741443284375, global = 1.02971958415e-05, cumulative = 1.02971958415e-05
DILUPBiCGStab:  Solving for omega, Initial residual = 0.0023151716025, Final residual = 5.70159045516e-05, No Iterations 1
linear solve omega 309493
bounding omega, min: -63952.6919238 max: 2809464.71271 average: 2480.1546435
DILUPBiCGStab:  Solving for k, Initial residual = 0.999999999282, Final residual = 0.0479474568181, No Iterations 1
linear solve k 260371
ExecutionTime = 82.12 s  ClockTime = 82 s

Time = 2

DILUPBiCGStab:  Solving for Ux, Initial residual = 0.0152079581836, Final residual = 0.00107245269304, No Iterations 3
DILUPBiCGStab:  Solving for Uy, Initial residual = 0.262262581206, Final residual = 0.0185047487961, No Iterations 3
DILUPBiCGStab:  Solving for Uz, Initial residual = 0.129604346992, Final residual = 0.00711665812115, No Iterations 3
linear solve U 1398864
[OGL LOG][Proc: 0]global_index_init : 1179 mu s
[OGL LOG][Proc: 0]global_index_init : 5 mu s
[OGL LOG][Proc: 0]global_index_init : 9 mu s
[OGL LOG][Proc: 0]global_index_init : 8 mu s
[OGL LOG][Proc: 0]update_host_matrix_data : 75359 mu s
[OGL LOG][Proc: 0]gather_initGuess : 324900 mu s
[OGL LOG][Proc: 0]gather_RHS : 332062 mu s
[OGL LOG][Proc: 0]gather_global_matrix : 0 mu s
[OGL LOG][Proc: 0]init_precond : 15183651 mu s
[OGL LOG][Proc: 0]generate_solver : 0 mu s
[OGL LOG][Proc: 0]solve : 19237499 mu s
[OGL LOG][Proc: 0]retrieve_result_from_device : 291544 mu s
MultigridhipGKOCG:  Solving for p, Initial residual = 1, Final residual = 0.00831203164651, No Iterations 25
linear solve p 35553833
time step continuity errors : sum local = 0.103565319106, global = -2.68534559731e-05, cumulative = -1.65562601317e-05
DILUPBiCGStab:  Solving for omega, Initial residual = 0.00177227528851, Final residual = 4.54538637769e-05, No Iterations 1
linear solve omega 274694
bounding omega, min: -216.932121546 max: 2809571.78887 average: 2823.07172358
DILUPBiCGStab:  Solving for k, Initial residual = 0.0314719820011, Final residual = 0.00134091018777, No Iterations 1
linear solve k 242381
ExecutionTime = 124.01 s  ClockTime = 123 s

Time = 3

DILUPBiCGStab:  Solving for Ux, Initial residual = 0.0753758636177, Final residual = 0.00635180270615, No Iterations 7
DILUPBiCGStab:  Solving for Uy, Initial residual = 0.497160351277, Final residual = 0.0423028282624, No Iterations 7
DILUPBiCGStab:  Solving for Uz, Initial residual = 0.469556753132, Final residual = 0.040124922436, No Iterations 7
linear solve U 3141977
[OGL LOG][Proc: 0]global_index_init : 1224 mu s
[OGL LOG][Proc: 0]global_index_init : 6 mu s
[OGL LOG][Proc: 0]global_index_init : 11 mu s
[OGL LOG][Proc: 0]global_index_init : 8 mu s
[OGL LOG][Proc: 0]update_host_matrix_data : 73240 mu s
[OGL LOG][Proc: 0]gather_initGuess : 327684 mu s
[OGL LOG][Proc: 0]gather_RHS : 329202 mu s
[OGL LOG][Proc: 0]gather_global_matrix : 0 mu s
[OGL LOG][Proc: 0]init_precond : 15105764 mu s
[OGL LOG][Proc: 0]generate_solver : 0 mu s
[OGL LOG][Proc: 0]solve : 15083795 mu s
[OGL LOG][Proc: 0]retrieve_result_from_device : 80679 mu s
MultigridhipGKOCG:  Solving for p, Initial residual = 1, Final residual = 0.00170846920351, No Iterations 21
linear solve p 31225169
time step continuity errors : sum local = 4252.85772782, global = -0.0112224614015, cumulative = -0.0112390176617
DILUPBiCGStab:  Solving for omega, Initial residual = 0.0850568480739, Final residual = 0.000353302537346, No Iterations 1
linear solve omega 213376
DILUPBiCGStab:  Solving for k, Initial residual = 0.133093322412, Final residual = 0.000294319516267, No Iterations 1
linear solve k 243141
ExecutionTime = 163.14 s  ClockTime = 162 s

End

Finalising parallel run
================================================================================
hash: 7c77c60489265f2e54e7894c33618ff2
/*---------------------------------------------------------------------------*\
| =========                 |                                                 |
| \\      /  F ield         | OpenFOAM: The Open Source CFD Toolbox           |
|  \\    /   O peration     | Version:  v2106                                 |
|   \\  /    A nd           | Website:  www.openfoam.com                      |
|    \\/     M anipulation  |                                                 |
\*---------------------------------------------------------------------------*/
Build  : f815a12bba-20210902 OPENFOAM=2106
Arch   : "LSB;label=32;scalar=64"
Exec   : simpleFoam -parallel
Date   : Jan 26 2022
Time   : 09:50:39
Host   : nla-gpu2.ianm.kit.edu
PID    : 2396025
I/O    : uncollated
Case   : /home/greole/data/code/ogl_labbook/motorcycle_solver/solver/Variation_mesh/Large/Variation_matrix_solver/CG_Multigrid_HIP/Variation_mpiRank/4/base
nProcs : 4
Hosts  :
(
    (nla-gpu2.ianm.kit.edu 4)
)
Pstream initialized with:
    floatTransfer      : 0
    nProcsSimpleSum    : 0
    commsType          : nonBlocking
    polling iterations : 0
trapFpe: Floating point exception trapping enabled (FOAM_SIGFPE).
fileModificationChecking : Monitoring run-time modified files using timeStampMaster (fileModificationSkew 5, maxFileModificationPolls 20)
allowSystemOperations : Allowing user-supplied system call operations

// * * * * * * * * * * * * * * * * * * * * * * * * * * * * * * * * * * * * * //
Create time

Create mesh for time = 0


SIMPLE: no convergence criteria found. Calculations will run for 3 steps.

Reading field p

Reading field U

Reading/calculating face flux field phi

Selecting incompressible transport model Newtonian
Selecting turbulence model type RAS
Selecting RAS turbulence model kOmegaSST
Selecting patchDistMethod meshWave
RAS
{
    RASModel        kOmegaSST;
    turbulence      on;
    printCoeffs     on;
    alphaK1         0.85;
    alphaK2         1;
    alphaOmega1     0.5;
    alphaOmega2     0.856;
    gamma1          0.555555555556;
    gamma2          0.44;
    beta1           0.075;
    beta2           0.0828;
    betaStar        0.09;
    a1              0.31;
    b1              1;
    c1              10;
    F3              false;
    decayControl    false;
    kInf            0;
    omegaInf        0;
}

No MRF models present

No finite volume options present

Starting time loop

Time = 1

DILUPBiCGStab:  Solving for Ux, Initial residual = 0.0298408184804, Final residual = 0.000860482801151, No Iterations 4
DILUPBiCGStab:  Solving for Uy, Initial residual = 0.416436009193, Final residual = 0.0300438011241, No Iterations 3
DILUPBiCGStab:  Solving for Uz, Initial residual = 0.262309070455, Final residual = 0.010828825442, No Iterations 3
linear solve U 6652523
[OGL LOG][Proc: 0]global_index_init : 253 mu s
[OGL LOG][Proc: 0]global_index_init : 4 mu s
[OGL LOG][Proc: 0]global_index_init : 2 mu s
[OGL LOG][Proc: 0]global_index_init : 2 mu s
[OGL LOG][Proc: 0]init_host_sparsity_pattern : 18093144 mu s
[OGL LOG][Proc: 0]update_host_matrix_data : 254337 mu s
[OGL LOG][Proc: 0]convert_coo_to_csr : 12297 mu s
[OGL LOG][Proc: 0]gather_initGuess : 71111 mu s
[OGL LOG][Proc: 0]gather_RHS : 68339 mu s
[OGL LOG][Proc: 0]gather_global_matrix : 1 mu s
[OGL LOG][Proc: 0]init_precond : 2958383 mu s
[OGL LOG][Proc: 0]generate_solver : 3 mu s
[OGL LOG][Proc: 0]solve : 3828416 mu s
[OGL LOG][Proc: 0]retrieve_result_from_device : 63428 mu s
MultigridhipGKOCG:  Solving for p, Initial residual = 1, Final residual = 0.00927684203532, No Iterations 26
linear solve p 27063834
time step continuity errors : sum local = 0.000763323383014, global = 1.31663142935e-05, cumulative = 1.31663142935e-05
DILUPBiCGStab:  Solving for omega, Initial residual = 0.00231301194498, Final residual = 5.52245284635e-05, No Iterations 1
linear solve omega 923692
bounding omega, min: -64386.1343548 max: 2809464.71271 average: 2480.66647319
DILUPBiCGStab:  Solving for k, Initial residual = 0.999999998225, Final residual = 0.0409533918896, No Iterations 1
linear solve k 926938
ExecutionTime = 153.11 s  ClockTime = 153 s

Time = 2

DILUPBiCGStab:  Solving for Ux, Initial residual = 0.0152763728351, Final residual = 0.000979462487929, No Iterations 3
DILUPBiCGStab:  Solving for Uy, Initial residual = 0.264060483047, Final residual = 0.0161392666957, No Iterations 3
DILUPBiCGStab:  Solving for Uz, Initial residual = 0.131322714852, Final residual = 0.0066702203296, No Iterations 3
linear solve U 5433179
[OGL LOG][Proc: 0]global_index_init : 739 mu s
[OGL LOG][Proc: 0]global_index_init : 2 mu s
[OGL LOG][Proc: 0]global_index_init : 1 mu s
[OGL LOG][Proc: 0]global_index_init : 3 mu s
[OGL LOG][Proc: 0]update_host_matrix_data : 217196 mu s
[OGL LOG][Proc: 0]gather_initGuess : 21611 mu s
[OGL LOG][Proc: 0]gather_RHS : 66865 mu s
[OGL LOG][Proc: 0]gather_global_matrix : 0 mu s
[OGL LOG][Proc: 0]init_precond : 2903855 mu s
[OGL LOG][Proc: 0]generate_solver : 0 mu s
[OGL LOG][Proc: 0]solve : 3814519 mu s
[OGL LOG][Proc: 0]retrieve_result_from_device : 60623 mu s
MultigridhipGKOCG:  Solving for p, Initial residual = 1, Final residual = 0.00948128541519, No Iterations 26
linear solve p 7159166
time step continuity errors : sum local = 0.0800173846104, global = 2.29869453022e-05, cumulative = 3.61532595957e-05
DILUPBiCGStab:  Solving for omega, Initial residual = 0.00162088693546, Final residual = 4.48572384006e-05, No Iterations 1
linear solve omega 931312
bounding omega, min: -214.27655339 max: 2809505.29173 average: 2815.9502156
DILUPBiCGStab:  Solving for k, Initial residual = 0.0301003854903, Final residual = 0.00114323419532, No Iterations 1
linear solve k 928170
ExecutionTime = 184.42 s  ClockTime = 184 s

Time = 3

DILUPBiCGStab:  Solving for Ux, Initial residual = 0.0557899429159, Final residual = 0.00432652911134, No Iterations 7
DILUPBiCGStab:  Solving for Uy, Initial residual = 0.465729894963, Final residual = 0.0283107176923, No Iterations 7
DILUPBiCGStab:  Solving for Uz, Initial residual = 0.442348059796, Final residual = 0.0248987173331, No Iterations 7
linear solve U 12598398
[OGL LOG][Proc: 0]global_index_init : 687 mu s
[OGL LOG][Proc: 0]global_index_init : 1 mu s
[OGL LOG][Proc: 0]global_index_init : 2 mu s
[OGL LOG][Proc: 0]global_index_init : 2 mu s
[OGL LOG][Proc: 0]update_host_matrix_data : 218763 mu s
[OGL LOG][Proc: 0]gather_initGuess : 21540 mu s
[OGL LOG][Proc: 0]gather_RHS : 63431 mu s
[OGL LOG][Proc: 0]gather_global_matrix : 0 mu s
[OGL LOG][Proc: 0]init_precond : 2902135 mu s
[OGL LOG][Proc: 0]generate_solver : 0 mu s
[OGL LOG][Proc: 0]solve : 3072519 mu s
[OGL LOG][Proc: 0]retrieve_result_from_device : 61207 mu s
MultigridhipGKOCG:  Solving for p, Initial residual = 1, Final residual = 0.00213475870096, No Iterations 21
linear solve p 6419517
time step continuity errors : sum local = 2955.07336671, global = -0.00320367462356, cumulative = -0.00316752136396
DILUPBiCGStab:  Solving for omega, Initial residual = 0.0817363929978, Final residual = 0.000344828982343, No Iterations 1
linear solve omega 643629
bounding omega, min: -904.057973818 max: 2808962.78467 average: 3268.13811136
DILUPBiCGStab:  Solving for k, Initial residual = 0.132296505689, Final residual = 0.000317372069341, No Iterations 1
linear solve k 924294
ExecutionTime = 221.93 s  ClockTime = 221 s

End

Finalising parallel run
================================================================================
