hash: 9f907edb3c1335d15c572b15a6eaef0e
/*---------------------------------------------------------------------------*\
| =========                 |                                                 |
| \\      /  F ield         | OpenFOAM: The Open Source CFD Toolbox           |
|  \\    /   O peration     | Version:  v2106                                 |
|   \\  /    A nd           | Website:  www.openfoam.com                      |
|    \\/     M anipulation  |                                                 |
\*---------------------------------------------------------------------------*/
Build  : f815a12bba-20210902 OPENFOAM=2106
Arch   : "LSB;label=32;scalar=64"
Exec   : simpleFoam -parallel
Date   : Jan 20 2022
Time   : 13:49:40
Host   : nla-gpu2.ianm.kit.edu
PID    : 1790601
I/O    : uncollated
Case   : /home/greole/data/code/ogl_labbook/motorcycle_solver/solver/Variation_mesh/Large/Variation_matrix_solver/CG_BJ_HIP/Variation_mpiRank/16/base
nProcs : 16
Hosts  :
(
    (nla-gpu2.ianm.kit.edu 16)
)
Pstream initialized with:
    floatTransfer      : 0
    nProcsSimpleSum    : 0
    commsType          : nonBlocking
    polling iterations : 0
trapFpe: Floating point exception trapping enabled (FOAM_SIGFPE).
fileModificationChecking : Monitoring run-time modified files using timeStampMaster (fileModificationSkew 5, maxFileModificationPolls 20)
allowSystemOperations : Allowing user-supplied system call operations

// * * * * * * * * * * * * * * * * * * * * * * * * * * * * * * * * * * * * * //
Create time

Create mesh for time = 0


SIMPLE: no convergence criteria found. Calculations will run for 3 steps.

Reading field p

Reading field U

Reading/calculating face flux field phi

Selecting incompressible transport model Newtonian
Selecting turbulence model type RAS
Selecting RAS turbulence model kOmegaSST
Selecting patchDistMethod meshWave
RAS
{
    RASModel        kOmegaSST;
    turbulence      on;
    printCoeffs     on;
    alphaK1         0.85;
    alphaK2         1;
    alphaOmega1     0.5;
    alphaOmega2     0.856;
    gamma1          0.555555555556;
    gamma2          0.44;
    beta1           0.075;
    beta2           0.0828;
    betaStar        0.09;
    a1              0.31;
    b1              1;
    c1              10;
    F3              false;
    decayControl    false;
    kInf            0;
    omegaInf        0;
}

No MRF models present

No finite volume options present

Starting time loop

Time = 1

DILUPBiCGStab:  Solving for Ux, Initial residual = 0.029840818522, Final residual = 0.000890765537447, No Iterations 4
DILUPBiCGStab:  Solving for Uy, Initial residual = 0.416436009777, Final residual = 0.0325999042504, No Iterations 3
DILUPBiCGStab:  Solving for Uz, Initial residual = 0.262309070745, Final residual = 0.0119350495045, No Iterations 3
linear solve U 2110288
[OGL LOG][Proc: 0]global_index_init : 50478 mu s
[OGL LOG][Proc: 0]global_index_init : 4 mu s
[OGL LOG][Proc: 0]global_index_init : 7 mu s
[OGL LOG][Proc: 0]global_index_init : 6 mu s
[OGL LOG][Proc: 0]init_host_sparsity_pattern : 30045734 mu s
[OGL LOG][Proc: 0]update_host_matrix_data : 96452 mu s
[OGL LOG][Proc: 0]convert_coo_to_csr : 12328 mu s
[OGL LOG][Proc: 0]gather_global_matrix : 1 mu s
 block size 1
[OGL LOG][Proc: 0]init_precond : 312636 mu s
[OGL LOG][Proc: 0]generate_solver : 21 mu s
[OGL LOG][Proc: 0]solve : 8492684 mu s
[OGL LOG][Proc: 0]retrieve_result_from_device : 286433 mu s
BJhipGKOCG:  Solving for p, Initial residual = 1, Final residual = 0.00994612008501, No Iterations 312
linear solve p 51010430
time step continuity errors : sum local = 0.000822084995926, global = 2.24757607353e-05, cumulative = 2.24757607353e-05
DILUPBiCGStab:  Solving for omega, Initial residual = 0.00231322949999, Final residual = 5.61408754836e-05, No Iterations 1
linear solve omega 359957
bounding omega, min: -64517.1123702 max: 2809464.71271 average: 2480.52242531
DILUPBiCGStab:  Solving for k, Initial residual = 0.999999998677, Final residual = 0.0418607412958, No Iterations 1
linear solve k 300894
ExecutionTime = 88.56 s  ClockTime = 88 s

Time = 2

DILUPBiCGStab:  Solving for Ux, Initial residual = 0.0152813083251, Final residual = 0.00104627803717, No Iterations 3
DILUPBiCGStab:  Solving for Uy, Initial residual = 0.263854881652, Final residual = 0.0177909394329, No Iterations 3
DILUPBiCGStab:  Solving for Uz, Initial residual = 0.131543528735, Final residual = 0.0068610448663, No Iterations 3
linear solve U 1744246
[OGL LOG][Proc: 0]global_index_init : 1758 mu s
[OGL LOG][Proc: 0]global_index_init : 7 mu s
[OGL LOG][Proc: 0]global_index_init : 7 mu s
[OGL LOG][Proc: 0]global_index_init : 7 mu s
[OGL LOG][Proc: 0]update_host_matrix_data : 83616 mu s
[OGL LOG][Proc: 0]gather_global_matrix : 1 mu s
 block size 1
[OGL LOG][Proc: 0]init_precond : 19765 mu s
[OGL LOG][Proc: 0]generate_solver : 2 mu s
[OGL LOG][Proc: 0]solve : 7873687 mu s
[OGL LOG][Proc: 0]retrieve_result_from_device : 174262 mu s
BJhipGKOCG:  Solving for p, Initial residual = 0.0342320614242, Final residual = 0.00027834048705, No Iterations 301
linear solve p 9931105
time step continuity errors : sum local = 0.104907856248, global = -5.05256698782e-05, cumulative = -2.80499091429e-05
DILUPBiCGStab:  Solving for omega, Initial residual = 0.00177888994464, Final residual = 4.4830259794e-05, No Iterations 1
linear solve omega 357800
bounding omega, min: -229.300968024 max: 2809502.68286 average: 2822.26225476
DILUPBiCGStab:  Solving for k, Initial residual = 0.0316618881834, Final residual = 0.00115061964303, No Iterations 1
linear solve k 305118
ExecutionTime = 106.33 s  ClockTime = 105 s

Time = 3

DILUPBiCGStab:  Solving for Ux, Initial residual = 0.0684390247855, Final residual = 0.00597856430547, No Iterations 7
DILUPBiCGStab:  Solving for Uy, Initial residual = 0.499180752203, Final residual = 0.0351812500505, No Iterations 7
DILUPBiCGStab:  Solving for Uz, Initial residual = 0.481274353856, Final residual = 0.0282842476205, No Iterations 9
linear solve U 4399923
[OGL LOG][Proc: 0]global_index_init : 2104 mu s
[OGL LOG][Proc: 0]global_index_init : 6 mu s
[OGL LOG][Proc: 0]global_index_init : 8 mu s
[OGL LOG][Proc: 0]global_index_init : 5 mu s
[OGL LOG][Proc: 0]update_host_matrix_data : 83758 mu s
[OGL LOG][Proc: 0]gather_global_matrix : 0 mu s
 block size 1
[OGL LOG][Proc: 0]init_precond : 60117 mu s
[OGL LOG][Proc: 0]generate_solver : 2 mu s
[OGL LOG][Proc: 0]solve : 5871589 mu s
[OGL LOG][Proc: 0]retrieve_result_from_device : 105823 mu s
BJhipGKOCG:  Solving for p, Initial residual = 0.959699059537, Final residual = 0.00331567843016, No Iterations 241
linear solve p 7881647
time step continuity errors : sum local = 4057.32396242, global = -0.0110947799909, cumulative = -0.0111228299
DILUPBiCGStab:  Solving for omega, Initial residual = 0.0860157435781, Final residual = 0.000356269108028, No Iterations 1
linear solve omega 268297
DILUPBiCGStab:  Solving for k, Initial residual = 0.130746872208, Final residual = 0.000292513604021, No Iterations 1
linear solve k 301318
ExecutionTime = 124.46 s  ClockTime = 123 s

End

Finalising parallel run
================================================================================
hash: 1711b757ac8ad0d6849b5102a9812d57
/*---------------------------------------------------------------------------*\
| =========                 |                                                 |
| \\      /  F ield         | OpenFOAM: The Open Source CFD Toolbox           |
|  \\    /   O peration     | Version:  v2106                                 |
|   \\  /    A nd           | Website:  www.openfoam.com                      |
|    \\/     M anipulation  |                                                 |
\*---------------------------------------------------------------------------*/
Build  : f815a12bba-20210902 OPENFOAM=2106
Arch   : "LSB;label=32;scalar=64"
Exec   : simpleFoam -parallel
Date   : Jan 20 2022
Time   : 13:51:45
Host   : nla-gpu2.ianm.kit.edu
PID    : 1791807
I/O    : uncollated
Case   : /home/greole/data/code/ogl_labbook/motorcycle_solver/solver/Variation_mesh/Large/Variation_matrix_solver/CG_BJ_HIP/Variation_mpiRank/32/base
nProcs : 32
Hosts  :
(
    (nla-gpu2.ianm.kit.edu 32)
)
Pstream initialized with:
    floatTransfer      : 0
    nProcsSimpleSum    : 0
    commsType          : nonBlocking
    polling iterations : 0
trapFpe: Floating point exception trapping enabled (FOAM_SIGFPE).
fileModificationChecking : Monitoring run-time modified files using timeStampMaster (fileModificationSkew 5, maxFileModificationPolls 20)
allowSystemOperations : Allowing user-supplied system call operations

// * * * * * * * * * * * * * * * * * * * * * * * * * * * * * * * * * * * * * //
Create time

Create mesh for time = 0


SIMPLE: no convergence criteria found. Calculations will run for 3 steps.

Reading field p

Reading field U

Reading/calculating face flux field phi

Selecting incompressible transport model Newtonian
Selecting turbulence model type RAS
Selecting RAS turbulence model kOmegaSST
Selecting patchDistMethod meshWave
RAS
{
    RASModel        kOmegaSST;
    turbulence      on;
    printCoeffs     on;
    alphaK1         0.85;
    alphaK2         1;
    alphaOmega1     0.5;
    alphaOmega2     0.856;
    gamma1          0.555555555556;
    gamma2          0.44;
    beta1           0.075;
    beta2           0.0828;
    betaStar        0.09;
    a1              0.31;
    b1              1;
    c1              10;
    F3              false;
    decayControl    false;
    kInf            0;
    omegaInf        0;
}

No MRF models present

No finite volume options present

Starting time loop

Time = 1

DILUPBiCGStab:  Solving for Ux, Initial residual = 0.0298408185319, Final residual = 0.0023442936585, No Iterations 3
DILUPBiCGStab:  Solving for Uy, Initial residual = 0.416436010106, Final residual = 0.0343159774748, No Iterations 3
DILUPBiCGStab:  Solving for Uz, Initial residual = 0.262309071038, Final residual = 0.0121250711235, No Iterations 3
linear solve U 1629150
[OGL LOG][Proc: 0]global_index_init : 342090 mu s
[OGL LOG][Proc: 0]global_index_init : 17 mu s
[OGL LOG][Proc: 0]global_index_init : 8 mu s
[OGL LOG][Proc: 0]global_index_init : 29 mu s
[OGL LOG][Proc: 0]init_host_sparsity_pattern : 6002574 mu s
[OGL LOG][Proc: 0]update_host_matrix_data : 45589 mu s
[OGL LOG][Proc: 0]convert_coo_to_csr : 12122 mu s
[OGL LOG][Proc: 0]gather_global_matrix : 0 mu s
 block size 1
[OGL LOG][Proc: 0]init_precond : 47554 mu s
[OGL LOG][Proc: 0]generate_solver : 22 mu s
[OGL LOG][Proc: 0]solve : 25700980 mu s
[OGL LOG][Proc: 0]retrieve_result_from_device : 85240 mu s
BJhipGKOCG:  Solving for p, Initial residual = 1, Final residual = 0.00999607067914, No Iterations 310
linear solve p 50490094
time step continuity errors : sum local = 0.000822212073768, global = 1.6303070086e-05, cumulative = 1.6303070086e-05
DILUPBiCGStab:  Solving for omega, Initial residual = 0.00231518660431, Final residual = 5.70189648098e-05, No Iterations 1
linear solve omega 287363
bounding omega, min: -64021.0409441 max: 2809464.71271 average: 2480.21483321
DILUPBiCGStab:  Solving for k, Initial residual = 0.999999999282, Final residual = 0.0479519272134, No Iterations 1
linear solve k 263371
ExecutionTime = 73.44 s  ClockTime = 73 s

Time = 2

DILUPBiCGStab:  Solving for Ux, Initial residual = 0.0152139175508, Final residual = 0.00107174283995, No Iterations 3
DILUPBiCGStab:  Solving for Uy, Initial residual = 0.262342045434, Final residual = 0.0184611000169, No Iterations 3
DILUPBiCGStab:  Solving for Uz, Initial residual = 0.129723505005, Final residual = 0.00712275887823, No Iterations 3
linear solve U 1392325
[OGL LOG][Proc: 0]global_index_init : 1474 mu s
[OGL LOG][Proc: 0]global_index_init : 7 mu s
[OGL LOG][Proc: 0]global_index_init : 7 mu s
[OGL LOG][Proc: 0]global_index_init : 9 mu s
[OGL LOG][Proc: 0]update_host_matrix_data : 73334 mu s
[OGL LOG][Proc: 0]gather_global_matrix : 0 mu s
 block size 1
[OGL LOG][Proc: 0]init_precond : 19636 mu s
[OGL LOG][Proc: 0]generate_solver : 2 mu s
[OGL LOG][Proc: 0]solve : 21321150 mu s
[OGL LOG][Proc: 0]retrieve_result_from_device : 79032 mu s
BJhipGKOCG:  Solving for p, Initial residual = 0.034851714079, Final residual = 0.000275843464761, No Iterations 301
linear solve p 22958093
time step continuity errors : sum local = 0.103663591243, global = -6.2522820277e-05, cumulative = -4.6219750191e-05
DILUPBiCGStab:  Solving for omega, Initial residual = 0.00177749164725, Final residual = 4.54699657843e-05, No Iterations 1
linear solve omega 281426
bounding omega, min: -214.692999416 max: 2809572.6091 average: 2823.18901929
DILUPBiCGStab:  Solving for k, Initial residual = 0.0314809492914, Final residual = 0.00134041260197, No Iterations 1
linear solve k 246323
ExecutionTime = 102.61 s  ClockTime = 102 s

Time = 3

DILUPBiCGStab:  Solving for Ux, Initial residual = 0.0759234404129, Final residual = 0.0070328704358, No Iterations 7
DILUPBiCGStab:  Solving for Uy, Initial residual = 0.497263129236, Final residual = 0.0460761611486, No Iterations 7
DILUPBiCGStab:  Solving for Uz, Initial residual = 0.469044309313, Final residual = 0.0445159860623, No Iterations 7
linear solve U 3160786
[OGL LOG][Proc: 0]global_index_init : 1288 mu s
[OGL LOG][Proc: 0]global_index_init : 7 mu s
[OGL LOG][Proc: 0]global_index_init : 7 mu s
[OGL LOG][Proc: 0]global_index_init : 12 mu s
[OGL LOG][Proc: 0]update_host_matrix_data : 73628 mu s
[OGL LOG][Proc: 0]gather_global_matrix : 0 mu s
 block size 1
[OGL LOG][Proc: 0]init_precond : 311642 mu s
[OGL LOG][Proc: 0]generate_solver : 2 mu s
[OGL LOG][Proc: 0]solve : 17332949 mu s
[OGL LOG][Proc: 0]retrieve_result_from_device : 927713 mu s
BJhipGKOCG:  Solving for p, Initial residual = 0.962853028717, Final residual = 0.00312831994432, No Iterations 241
linear solve p 20345151
time step continuity errors : sum local = 4282.05455014, global = -0.0108536763241, cumulative = -0.0108998960743
DILUPBiCGStab:  Solving for omega, Initial residual = 0.0850483915579, Final residual = 0.000358365559446, No Iterations 1
linear solve omega 212907
DILUPBiCGStab:  Solving for k, Initial residual = 0.133442490494, Final residual = 0.000293533448144, No Iterations 1
linear solve k 257573
ExecutionTime = 130.77 s  ClockTime = 130 s

End

Finalising parallel run
================================================================================
hash: efcc1fd9f7160d3567312e61cc51fd36
/*---------------------------------------------------------------------------*\
| =========                 |                                                 |
| \\      /  F ield         | OpenFOAM: The Open Source CFD Toolbox           |
|  \\    /   O peration     | Version:  v2106                                 |
|   \\  /    A nd           | Website:  www.openfoam.com                      |
|    \\/     M anipulation  |                                                 |
\*---------------------------------------------------------------------------*/
Build  : f815a12bba-20210902 OPENFOAM=2106
Arch   : "LSB;label=32;scalar=64"
Exec   : simpleFoam -parallel
Date   : Jan 20 2022
Time   : 13:53:56
Host   : nla-gpu2.ianm.kit.edu
PID    : 1793291
I/O    : uncollated
Case   : /home/greole/data/code/ogl_labbook/motorcycle_solver/solver/Variation_mesh/Large/Variation_matrix_solver/CG_BJ_HIP/Variation_mpiRank/4/base
nProcs : 4
Hosts  :
(
    (nla-gpu2.ianm.kit.edu 4)
)
Pstream initialized with:
    floatTransfer      : 0
    nProcsSimpleSum    : 0
    commsType          : nonBlocking
    polling iterations : 0
trapFpe: Floating point exception trapping enabled (FOAM_SIGFPE).
fileModificationChecking : Monitoring run-time modified files using timeStampMaster (fileModificationSkew 5, maxFileModificationPolls 20)
allowSystemOperations : Allowing user-supplied system call operations

// * * * * * * * * * * * * * * * * * * * * * * * * * * * * * * * * * * * * * //
Create time

Create mesh for time = 0


SIMPLE: no convergence criteria found. Calculations will run for 3 steps.

Reading field p

Reading field U

Reading/calculating face flux field phi

Selecting incompressible transport model Newtonian
Selecting turbulence model type RAS
Selecting RAS turbulence model kOmegaSST
Selecting patchDistMethod meshWave
RAS
{
    RASModel        kOmegaSST;
    turbulence      on;
    printCoeffs     on;
    alphaK1         0.85;
    alphaK2         1;
    alphaOmega1     0.5;
    alphaOmega2     0.856;
    gamma1          0.555555555556;
    gamma2          0.44;
    beta1           0.075;
    beta2           0.0828;
    betaStar        0.09;
    a1              0.31;
    b1              1;
    c1              10;
    F3              false;
    decayControl    false;
    kInf            0;
    omegaInf        0;
}

No MRF models present

No finite volume options present

Starting time loop

Time = 1

DILUPBiCGStab:  Solving for Ux, Initial residual = 0.0298408184804, Final residual = 0.000860482801151, No Iterations 4
DILUPBiCGStab:  Solving for Uy, Initial residual = 0.416436009193, Final residual = 0.0300438011241, No Iterations 3
DILUPBiCGStab:  Solving for Uz, Initial residual = 0.262309070455, Final residual = 0.010828825442, No Iterations 3
linear solve U 6654045
[OGL LOG][Proc: 0]global_index_init : 47 mu s
[OGL LOG][Proc: 0]global_index_init : 2 mu s
[OGL LOG][Proc: 0]global_index_init : 2 mu s
[OGL LOG][Proc: 0]global_index_init : 10 mu s
[OGL LOG][Proc: 0]init_host_sparsity_pattern : 17843625 mu s
[OGL LOG][Proc: 0]update_host_matrix_data : 255901 mu s
[OGL LOG][Proc: 0]convert_coo_to_csr : 12249 mu s
[OGL LOG][Proc: 0]gather_global_matrix : 1 mu s
 block size 1
[OGL LOG][Proc: 0]init_precond : 47698 mu s
[OGL LOG][Proc: 0]generate_solver : 15 mu s
[OGL LOG][Proc: 0]solve : 3376451 mu s
[OGL LOG][Proc: 0]retrieve_result_from_device : 66003 mu s
BJhipGKOCG:  Solving for p, Initial residual = 1, Final residual = 0.00993657440708, No Iterations 313
linear solve p 28246879
time step continuity errors : sum local = 0.000817607927687, global = 2.54437142944e-05, cumulative = 2.54437142944e-05
DILUPBiCGStab:  Solving for omega, Initial residual = 0.00231302827016, Final residual = 5.52255337322e-05, No Iterations 1
linear solve omega 917861
bounding omega, min: -64292.1823426 max: 2809464.71271 average: 2480.73744649
DILUPBiCGStab:  Solving for k, Initial residual = 0.999999998225, Final residual = 0.0409563433503, No Iterations 1
linear solve k 919509
ExecutionTime = 149.88 s  ClockTime = 150 s

Time = 2

DILUPBiCGStab:  Solving for Ux, Initial residual = 0.015282605811, Final residual = 0.000978438194626, No Iterations 3
DILUPBiCGStab:  Solving for Uy, Initial residual = 0.264123240448, Final residual = 0.0161359653388, No Iterations 3
DILUPBiCGStab:  Solving for Uz, Initial residual = 0.131459342348, Final residual = 0.00667552958981, No Iterations 3
linear solve U 5380072
[OGL LOG][Proc: 0]global_index_init : 540 mu s
[OGL LOG][Proc: 0]global_index_init : 3 mu s
[OGL LOG][Proc: 0]global_index_init : 3 mu s
[OGL LOG][Proc: 0]global_index_init : 2 mu s
[OGL LOG][Proc: 0]update_host_matrix_data : 217476 mu s
[OGL LOG][Proc: 0]gather_global_matrix : 1 mu s
 block size 1
[OGL LOG][Proc: 0]init_precond : 19362 mu s
[OGL LOG][Proc: 0]generate_solver : 1 mu s
[OGL LOG][Proc: 0]solve : 3068660 mu s
[OGL LOG][Proc: 0]retrieve_result_from_device : 78511 mu s
BJhipGKOCG:  Solving for p, Initial residual = 0.0325853568245, Final residual = 0.000285129211115, No Iterations 301
linear solve p 8367162
time step continuity errors : sum local = 0.0798875350624, global = -5.24314022428e-05, cumulative = -2.69876879484e-05
DILUPBiCGStab:  Solving for omega, Initial residual = 0.00162439095036, Final residual = 4.48983587412e-05, No Iterations 1
linear solve omega 923473
bounding omega, min: -211.097987823 max: 2809506.72859 average: 2816.10937088
DILUPBiCGStab:  Solving for k, Initial residual = 0.0301052670094, Final residual = 0.00114314521806, No Iterations 1
linear solve k 918033
ExecutionTime = 181.97 s  ClockTime = 182 s

Time = 3

DILUPBiCGStab:  Solving for Ux, Initial residual = 0.0556690582687, Final residual = 0.00443470471125, No Iterations 7
DILUPBiCGStab:  Solving for Uy, Initial residual = 0.465289770418, Final residual = 0.0285193630192, No Iterations 7
DILUPBiCGStab:  Solving for Uz, Initial residual = 0.440742257398, Final residual = 0.0405695143922, No Iterations 7
linear solve U 12570880
[OGL LOG][Proc: 0]global_index_init : 18 mu s
[OGL LOG][Proc: 0]global_index_init : 1 mu s
[OGL LOG][Proc: 0]global_index_init : 11 mu s
[OGL LOG][Proc: 0]global_index_init : 1 mu s
[OGL LOG][Proc: 0]update_host_matrix_data : 217600 mu s
[OGL LOG][Proc: 0]gather_global_matrix : 2 mu s
 block size 1
[OGL LOG][Proc: 0]init_precond : 19355 mu s
[OGL LOG][Proc: 0]generate_solver : 1 mu s
[OGL LOG][Proc: 0]solve : 2462093 mu s
[OGL LOG][Proc: 0]retrieve_result_from_device : 79758 mu s
BJhipGKOCG:  Solving for p, Initial residual = 0.943977462812, Final residual = 0.00247559084053, No Iterations 241
linear solve p 7778317
time step continuity errors : sum local = 2956.1305306, global = -0.00459801967055, cumulative = -0.00462500735849
DILUPBiCGStab:  Solving for omega, Initial residual = 0.0816118434231, Final residual = 0.000335586589065, No Iterations 1
linear solve omega 641136
bounding omega, min: -901.246403559 max: 2808958.54838 average: 3270.76402473
DILUPBiCGStab:  Solving for k, Initial residual = 0.132638248475, Final residual = 0.000316798203308, No Iterations 1
linear solve k 923117
ExecutionTime = 220.45 s  ClockTime = 220 s

End

Finalising parallel run
================================================================================
hash: f88408954f8ada92db16659289cb0f15
/*---------------------------------------------------------------------------*\
| =========                 |                                                 |
| \\      /  F ield         | OpenFOAM: The Open Source CFD Toolbox           |
|  \\    /   O peration     | Version:  v2106                                 |
|   \\  /    A nd           | Website:  www.openfoam.com                      |
|    \\/     M anipulation  |                                                 |
\*---------------------------------------------------------------------------*/
Build  : f815a12bba-20210902 OPENFOAM=2106
Arch   : "LSB;label=32;scalar=64"
Exec   : simpleFoam -parallel
Date   : Jan 20 2022
Time   : 13:57:38
Host   : nla-gpu2.ianm.kit.edu
PID    : 1795346
I/O    : uncollated
Case   : /home/greole/data/code/ogl_labbook/motorcycle_solver/solver/Variation_mesh/Large/Variation_matrix_solver/CG_BJ_HIP/Variation_mpiRank/8/base
nProcs : 8
Hosts  :
(
    (nla-gpu2.ianm.kit.edu 8)
)
Pstream initialized with:
    floatTransfer      : 0
    nProcsSimpleSum    : 0
    commsType          : nonBlocking
    polling iterations : 0
trapFpe: Floating point exception trapping enabled (FOAM_SIGFPE).
fileModificationChecking : Monitoring run-time modified files using timeStampMaster (fileModificationSkew 5, maxFileModificationPolls 20)
allowSystemOperations : Allowing user-supplied system call operations

// * * * * * * * * * * * * * * * * * * * * * * * * * * * * * * * * * * * * * //
Create time

Create mesh for time = 0


SIMPLE: no convergence criteria found. Calculations will run for 3 steps.

Reading field p

Reading field U

Reading/calculating face flux field phi

Selecting incompressible transport model Newtonian
Selecting turbulence model type RAS
Selecting RAS turbulence model kOmegaSST
Selecting patchDistMethod meshWave
RAS
{
    RASModel        kOmegaSST;
    turbulence      on;
    printCoeffs     on;
    alphaK1         0.85;
    alphaK2         1;
    alphaOmega1     0.5;
    alphaOmega2     0.856;
    gamma1          0.555555555556;
    gamma2          0.44;
    beta1           0.075;
    beta2           0.0828;
    betaStar        0.09;
    a1              0.31;
    b1              1;
    c1              10;
    F3              false;
    decayControl    false;
    kInf            0;
    omegaInf        0;
}

No MRF models present

No finite volume options present

Starting time loop

Time = 1

DILUPBiCGStab:  Solving for Ux, Initial residual = 0.0298408184793, Final residual = 0.00218216071274, No Iterations 3
DILUPBiCGStab:  Solving for Uy, Initial residual = 0.416436009197, Final residual = 0.0316946277838, No Iterations 3
DILUPBiCGStab:  Solving for Uz, Initial residual = 0.262309070484, Final residual = 0.0117523460212, No Iterations 3
linear solve U 3304637
[OGL LOG][Proc: 0]global_index_init : 29232 mu s
[OGL LOG][Proc: 0]global_index_init : 4 mu s
[OGL LOG][Proc: 0]global_index_init : 4 mu s
[OGL LOG][Proc: 0]global_index_init : 4 mu s
[OGL LOG][Proc: 0]init_host_sparsity_pattern : 47897594 mu s
[OGL LOG][Proc: 0]update_host_matrix_data : 128464 mu s
[OGL LOG][Proc: 0]convert_coo_to_csr : 12475 mu s
[OGL LOG][Proc: 0]gather_global_matrix : 1 mu s
 block size 1
[OGL LOG][Proc: 0]init_precond : 48759 mu s
[OGL LOG][Proc: 0]generate_solver : 18 mu s
[OGL LOG][Proc: 0]solve : 3355328 mu s
[OGL LOG][Proc: 0]retrieve_result_from_device : 83209 mu s
BJhipGKOCG:  Solving for p, Initial residual = 1, Final residual = 0.00994635933936, No Iterations 311
linear solve p 62591640
time step continuity errors : sum local = 0.000813064304687, global = 1.74566960869e-05, cumulative = 1.74566960869e-05
DILUPBiCGStab:  Solving for omega, Initial residual = 0.00231432608401, Final residual = 5.56912234479e-05, No Iterations 1
linear solve omega 542783
bounding omega, min: -63946.3748575 max: 2809464.71271 average: 2480.53191328
DILUPBiCGStab:  Solving for k, Initial residual = 0.999999998376, Final residual = 0.0429181013086, No Iterations 1
linear solve k 484486
ExecutionTime = 129.91 s  ClockTime = 130 s

Time = 2

DILUPBiCGStab:  Solving for Ux, Initial residual = 0.0152130793103, Final residual = 0.00100535055216, No Iterations 3
DILUPBiCGStab:  Solving for Uy, Initial residual = 0.261554409166, Final residual = 0.0185837332341, No Iterations 3
DILUPBiCGStab:  Solving for Uz, Initial residual = 0.130091201876, Final residual = 0.00669531915082, No Iterations 3
linear solve U 2793344
[OGL LOG][Proc: 0]global_index_init : 1701 mu s
[OGL LOG][Proc: 0]global_index_init : 3 mu s
[OGL LOG][Proc: 0]global_index_init : 6 mu s
[OGL LOG][Proc: 0]global_index_init : 3 mu s
[OGL LOG][Proc: 0]update_host_matrix_data : 110712 mu s
[OGL LOG][Proc: 0]gather_global_matrix : 1 mu s
 block size 1
[OGL LOG][Proc: 0]init_precond : 19346 mu s
[OGL LOG][Proc: 0]generate_solver : 1 mu s
[OGL LOG][Proc: 0]solve : 3064083 mu s
[OGL LOG][Proc: 0]retrieve_result_from_device : 77001 mu s
BJhipGKOCG:  Solving for p, Initial residual = 0.0343599952087, Final residual = 0.00028601902292, No Iterations 301
linear solve p 6147551
time step continuity errors : sum local = 0.0940240499651, global = -5.10145942283e-05, cumulative = -3.35578981415e-05
DILUPBiCGStab:  Solving for omega, Initial residual = 0.00171809510624, Final residual = 4.50416810329e-05, No Iterations 1
linear solve omega 538478
bounding omega, min: -209.903727619 max: 2809559.188 average: 2821.57738125
DILUPBiCGStab:  Solving for k, Initial residual = 0.0309495341993, Final residual = 0.00117610610874, No Iterations 1
linear solve k 490352
ExecutionTime = 148.5 s  ClockTime = 148 s

Time = 3

DILUPBiCGStab:  Solving for Ux, Initial residual = 0.0756181725436, Final residual = 0.00157034822689, No Iterations 9
DILUPBiCGStab:  Solving for Uy, Initial residual = 0.501548377805, Final residual = 0.0408147226603, No Iterations 7
DILUPBiCGStab:  Solving for Uz, Initial residual = 0.460480055551, Final residual = 0.0340103316604, No Iterations 7
linear solve U 6894416
[OGL LOG][Proc: 0]global_index_init : 1906 mu s
[OGL LOG][Proc: 0]global_index_init : 4 mu s
[OGL LOG][Proc: 0]global_index_init : 7 mu s
[OGL LOG][Proc: 0]global_index_init : 3 mu s
[OGL LOG][Proc: 0]update_host_matrix_data : 110613 mu s
[OGL LOG][Proc: 0]gather_global_matrix : 1 mu s
 block size 1
[OGL LOG][Proc: 0]init_precond : 19420 mu s
[OGL LOG][Proc: 0]generate_solver : 2 mu s
[OGL LOG][Proc: 0]solve : 2455990 mu s
[OGL LOG][Proc: 0]retrieve_result_from_device : 80822 mu s
BJhipGKOCG:  Solving for p, Initial residual = 0.963870819454, Final residual = 0.00320671422661, No Iterations 241
linear solve p 5535494
time step continuity errors : sum local = 4011.7242217, global = -0.0138418361249, cumulative = -0.0138753940231
DILUPBiCGStab:  Solving for omega, Initial residual = 0.0989432022789, Final residual = 0.000387201812786, No Iterations 1
linear solve omega 403097
bounding omega, min: -859.808526363 max: 2809004.99325 average: 3323.27739211
DILUPBiCGStab:  Solving for k, Initial residual = 0.130175287714, Final residual = 0.000237749800522, No Iterations 1
linear solve k 487836
ExecutionTime = 170.46 s  ClockTime = 170 s

End

Finalising parallel run
================================================================================
hash: 061cc15acee9148c7e516aec284c6e04
/*---------------------------------------------------------------------------*\
| =========                 |                                                 |
| \\      /  F ield         | OpenFOAM: The Open Source CFD Toolbox           |
|  \\    /   O peration     | Version:  v2106                                 |
|   \\  /    A nd           | Website:  www.openfoam.com                      |
|    \\/     M anipulation  |                                                 |
\*---------------------------------------------------------------------------*/
Build  : f815a12bba-20210902 OPENFOAM=2106
Arch   : "LSB;label=32;scalar=64"
Exec   : simpleFoam -parallel
Date   : Jan 20 2022
Time   : 14:00:30
Host   : nla-gpu2.ianm.kit.edu
PID    : 1796929
I/O    : uncollated
Case   : /home/greole/data/code/ogl_labbook/motorcycle_solver/solver/Variation_mesh/Large/Variation_matrix_solver/BiCGStab_ISAI_HIP/Variation_mpiRank/16/base
nProcs : 16
Hosts  :
(
    (nla-gpu2.ianm.kit.edu 16)
)
Pstream initialized with:
    floatTransfer      : 0
    nProcsSimpleSum    : 0
    commsType          : nonBlocking
    polling iterations : 0
trapFpe: Floating point exception trapping enabled (FOAM_SIGFPE).
fileModificationChecking : Monitoring run-time modified files using timeStampMaster (fileModificationSkew 5, maxFileModificationPolls 20)
allowSystemOperations : Allowing user-supplied system call operations

// * * * * * * * * * * * * * * * * * * * * * * * * * * * * * * * * * * * * * //
Create time

Create mesh for time = 0


SIMPLE: no convergence criteria found. Calculations will run for 3 steps.

Reading field p

Reading field U

Reading/calculating face flux field phi

Selecting incompressible transport model Newtonian
Selecting turbulence model type RAS
Selecting RAS turbulence model kOmegaSST
Selecting patchDistMethod meshWave
RAS
{
    RASModel        kOmegaSST;
    turbulence      on;
    printCoeffs     on;
    alphaK1         0.85;
    alphaK2         1;
    alphaOmega1     0.5;
    alphaOmega2     0.856;
    gamma1          0.555555555556;
    gamma2          0.44;
    beta1           0.075;
    beta2           0.0828;
    betaStar        0.09;
    a1              0.31;
    b1              1;
    c1              10;
    F3              false;
    decayControl    false;
    kInf            0;
    omegaInf        0;
}

No MRF models present

No finite volume options present

Starting time loop

Time = 1

DILUPBiCGStab:  Solving for Ux, Initial residual = 0.029840818522, Final residual = 0.000890765537447, No Iterations 4
DILUPBiCGStab:  Solving for Uy, Initial residual = 0.416436009777, Final residual = 0.0325999042504, No Iterations 3
DILUPBiCGStab:  Solving for Uz, Initial residual = 0.262309070745, Final residual = 0.0119350495045, No Iterations 3
linear solve U 2108197
[OGL LOG][Proc: 0]global_index_init : 80059 mu s
[OGL LOG][Proc: 0]global_index_init : 4 mu s
[OGL LOG][Proc: 0]global_index_init : 6 mu s
[OGL LOG][Proc: 0]global_index_init : 6 mu s
[OGL LOG][Proc: 0]init_host_sparsity_pattern : 30002156 mu s
[OGL LOG][Proc: 0]update_host_matrix_data : 97112 mu s
[OGL LOG][Proc: 0]convert_coo_to_csr : 12189 mu s
[OGL LOG][Proc: 0]gather_global_matrix : 0 mu s
[OGL LOG][Proc: 0]init_precond : 15893425 mu s
[OGL LOG][Proc: 0]generate_solver : 13 mu s
[OGL LOG][Proc: 0]solve : 4786334 mu s
[OGL LOG][Proc: 0]retrieve_result_from_device : 148168 mu s
ISAIhipGKOBiCGStab:  Solving for p, Initial residual = 1, Final residual = 0.00756358024625, No Iterations 68
linear solve p 62540075
time step continuity errors : sum local = 0.000625158934618, global = 5.36285156031e-05, cumulative = 5.36285156031e-05
DILUPBiCGStab:  Solving for omega, Initial residual = 0.0023135470962, Final residual = 5.61709880361e-05, No Iterations 1
linear solve omega 360302
bounding omega, min: -64430.3915737 max: 2809464.71271 average: 2480.00696923
DILUPBiCGStab:  Solving for k, Initial residual = 0.999999998687, Final residual = 0.0418676440301, No Iterations 1
linear solve k 302235
ExecutionTime = 100.38 s  ClockTime = 100 s

Time = 2

DILUPBiCGStab:  Solving for Ux, Initial residual = 0.015218195542, Final residual = 0.00104065577871, No Iterations 3
DILUPBiCGStab:  Solving for Uy, Initial residual = 0.264027182095, Final residual = 0.0178101295449, No Iterations 3
DILUPBiCGStab:  Solving for Uz, Initial residual = 0.127971294154, Final residual = 0.00666267237038, No Iterations 3
linear solve U 1756021
[OGL LOG][Proc: 0]global_index_init : 1440 mu s
[OGL LOG][Proc: 0]global_index_init : 7 mu s
[OGL LOG][Proc: 0]global_index_init : 7 mu s
[OGL LOG][Proc: 0]global_index_init : 6 mu s
[OGL LOG][Proc: 0]update_host_matrix_data : 81387 mu s
[OGL LOG][Proc: 0]gather_global_matrix : 0 mu s
[OGL LOG][Proc: 0]init_precond : 15539572 mu s
[OGL LOG][Proc: 0]generate_solver : 2 mu s
[OGL LOG][Proc: 0]solve : 3977331 mu s
[OGL LOG][Proc: 0]retrieve_result_from_device : 76951 mu s
ISAIhipGKOBiCGStab:  Solving for p, Initial residual = 0.0364028268029, Final residual = 0.000344508108673, No Iterations 61
linear solve p 21407952
time step continuity errors : sum local = 0.105546696081, global = 0.000191201677798, cumulative = 0.000244830193401
DILUPBiCGStab:  Solving for omega, Initial residual = 0.00179686397181, Final residual = 4.51097975177e-05, No Iterations 1
linear solve omega 363029
bounding omega, min: -220.33966647 max: 2809502.03812 average: 2822.03890917
DILUPBiCGStab:  Solving for k, Initial residual = 0.0316490896854, Final residual = 0.00114817756053, No Iterations 1
linear solve k 300849
ExecutionTime = 129.56 s  ClockTime = 129 s

Time = 3

DILUPBiCGStab:  Solving for Ux, Initial residual = 0.0750717932103, Final residual = 0.00628892108797, No Iterations 7
DILUPBiCGStab:  Solving for Uy, Initial residual = 0.502066185042, Final residual = 0.0406657278022, No Iterations 7
DILUPBiCGStab:  Solving for Uz, Initial residual = 0.484379764091, Final residual = 0.037611635084, No Iterations 6
linear solve U 3952576
[OGL LOG][Proc: 0]global_index_init : 1382 mu s
[OGL LOG][Proc: 0]global_index_init : 7 mu s
[OGL LOG][Proc: 0]global_index_init : 6 mu s
[OGL LOG][Proc: 0]global_index_init : 7 mu s
[OGL LOG][Proc: 0]update_host_matrix_data : 82444 mu s
[OGL LOG][Proc: 0]gather_global_matrix : 0 mu s
[OGL LOG][Proc: 0]init_precond : 15688106 mu s
[OGL LOG][Proc: 0]generate_solver : 1 mu s
[OGL LOG][Proc: 0]solve : 1845403 mu s
[OGL LOG][Proc: 0]retrieve_result_from_device : 78946 mu s
ISAIhipGKOBiCGStab:  Solving for p, Initial residual = 0.957359643676, Final residual = 0.00830242992882, No Iterations 28
linear solve p 19377238
time step continuity errors : sum local = 4076.27966119, global = 0.000229752188899, cumulative = 0.0004745823823
DILUPBiCGStab:  Solving for omega, Initial residual = 0.0857146856186, Final residual = 0.00035066705186, No Iterations 1
linear solve omega 277391
DILUPBiCGStab:  Solving for k, Initial residual = 0.13173537086, Final residual = 0.000297837557096, No Iterations 1
linear solve k 310664
ExecutionTime = 158.67 s  ClockTime = 158 s

End

Finalising parallel run
================================================================================
hash: 4a7d330e1fa43e5e518f95024b688240
/*---------------------------------------------------------------------------*\
| =========                 |                                                 |
| \\      /  F ield         | OpenFOAM: The Open Source CFD Toolbox           |
|  \\    /   O peration     | Version:  v2106                                 |
|   \\  /    A nd           | Website:  www.openfoam.com                      |
|    \\/     M anipulation  |                                                 |
\*---------------------------------------------------------------------------*/
Build  : f815a12bba-20210902 OPENFOAM=2106
Arch   : "LSB;label=32;scalar=64"
Exec   : simpleFoam -parallel
Date   : Jan 20 2022
Time   : 14:03:10
Host   : nla-gpu2.ianm.kit.edu
PID    : 1798499
I/O    : uncollated
Case   : /home/greole/data/code/ogl_labbook/motorcycle_solver/solver/Variation_mesh/Large/Variation_matrix_solver/BiCGStab_ISAI_HIP/Variation_mpiRank/32/base
nProcs : 32
Hosts  :
(
    (nla-gpu2.ianm.kit.edu 32)
)
Pstream initialized with:
    floatTransfer      : 0
    nProcsSimpleSum    : 0
    commsType          : nonBlocking
    polling iterations : 0
trapFpe: Floating point exception trapping enabled (FOAM_SIGFPE).
fileModificationChecking : Monitoring run-time modified files using timeStampMaster (fileModificationSkew 5, maxFileModificationPolls 20)
allowSystemOperations : Allowing user-supplied system call operations

// * * * * * * * * * * * * * * * * * * * * * * * * * * * * * * * * * * * * * //
Create time

Create mesh for time = 0


SIMPLE: no convergence criteria found. Calculations will run for 3 steps.

Reading field p

Reading field U

Reading/calculating face flux field phi

Selecting incompressible transport model Newtonian
Selecting turbulence model type RAS
Selecting RAS turbulence model kOmegaSST
Selecting patchDistMethod meshWave
RAS
{
    RASModel        kOmegaSST;
    turbulence      on;
    printCoeffs     on;
    alphaK1         0.85;
    alphaK2         1;
    alphaOmega1     0.5;
    alphaOmega2     0.856;
    gamma1          0.555555555556;
    gamma2          0.44;
    beta1           0.075;
    beta2           0.0828;
    betaStar        0.09;
    a1              0.31;
    b1              1;
    c1              10;
    F3              false;
    decayControl    false;
    kInf            0;
    omegaInf        0;
}

No MRF models present

No finite volume options present

Starting time loop

Time = 1

DILUPBiCGStab:  Solving for Ux, Initial residual = 0.0298408185319, Final residual = 0.0023442936585, No Iterations 3
DILUPBiCGStab:  Solving for Uy, Initial residual = 0.416436010106, Final residual = 0.0343159774748, No Iterations 3
DILUPBiCGStab:  Solving for Uz, Initial residual = 0.262309071038, Final residual = 0.0121250711235, No Iterations 3
linear solve U 1623164
[OGL LOG][Proc: 0]global_index_init : 367655 mu s
[OGL LOG][Proc: 0]global_index_init : 16 mu s
[OGL LOG][Proc: 0]global_index_init : 8 mu s
[OGL LOG][Proc: 0]global_index_init : 8 mu s
[OGL LOG][Proc: 0]init_host_sparsity_pattern : 5973700 mu s
[OGL LOG][Proc: 0]update_host_matrix_data : 46169 mu s
[OGL LOG][Proc: 0]convert_coo_to_csr : 12242 mu s
[OGL LOG][Proc: 0]gather_global_matrix : 1 mu s
[OGL LOG][Proc: 0]init_precond : 38571316 mu s
[OGL LOG][Proc: 0]generate_solver : 15 mu s
[OGL LOG][Proc: 0]solve : 12868785 mu s
[OGL LOG][Proc: 0]retrieve_result_from_device : 326267 mu s
ISAIhipGKOBiCGStab:  Solving for p, Initial residual = 1, Final residual = 0.00881098409324, No Iterations 62
linear solve p 76605592
time step continuity errors : sum local = 0.000724734521771, global = 4.74190984503e-05, cumulative = 4.74190984503e-05
DILUPBiCGStab:  Solving for omega, Initial residual = 0.00231554282829, Final residual = 5.704766428e-05, No Iterations 1
linear solve omega 290028
bounding omega, min: -63863.1195669 max: 2809464.71271 average: 2479.66311224
DILUPBiCGStab:  Solving for k, Initial residual = 0.999999999288, Final residual = 0.0479620842605, No Iterations 1
linear solve k 255873
ExecutionTime = 99.44 s  ClockTime = 99 s

Time = 2

DILUPBiCGStab:  Solving for Ux, Initial residual = 0.0151551860993, Final residual = 0.00106478230003, No Iterations 3
DILUPBiCGStab:  Solving for Uy, Initial residual = 0.262506383696, Final residual = 0.018087771153, No Iterations 3
DILUPBiCGStab:  Solving for Uz, Initial residual = 0.125884377485, Final residual = 0.00689788132557, No Iterations 3
linear solve U 1399176
[OGL LOG][Proc: 0]global_index_init : 1363 mu s
[OGL LOG][Proc: 0]global_index_init : 7 mu s
[OGL LOG][Proc: 0]global_index_init : 10 mu s
[OGL LOG][Proc: 0]global_index_init : 17 mu s
[OGL LOG][Proc: 0]update_host_matrix_data : 76135 mu s
[OGL LOG][Proc: 0]gather_global_matrix : 0 mu s
[OGL LOG][Proc: 0]init_precond : 41852950 mu s
[OGL LOG][Proc: 0]generate_solver : 1 mu s
[OGL LOG][Proc: 0]solve : 10963436 mu s
[OGL LOG][Proc: 0]retrieve_result_from_device : 353180 mu s
ISAIhipGKOBiCGStab:  Solving for p, Initial residual = 0.0369067999908, Final residual = 0.000364522442295, No Iterations 59
linear solve p 54745903
time step continuity errors : sum local = 0.104523286355, global = 0.000186225434245, cumulative = 0.000233644532695
DILUPBiCGStab:  Solving for omega, Initial residual = 0.00179965640752, Final residual = 4.58944791283e-05, No Iterations 1
linear solve omega 286472
bounding omega, min: -219.152634193 max: 2809572.43401 average: 2823.10180449
DILUPBiCGStab:  Solving for k, Initial residual = 0.0314728294792, Final residual = 0.00133713494835, No Iterations 1
linear solve k 246780
ExecutionTime = 160.26 s  ClockTime = 160 s

Time = 3

DILUPBiCGStab:  Solving for Ux, Initial residual = 0.0828898234535, Final residual = 0.00793068248536, No Iterations 7
DILUPBiCGStab:  Solving for Uy, Initial residual = 0.50200635439, Final residual = 0.0387574637215, No Iterations 8
DILUPBiCGStab:  Solving for Uz, Initial residual = 0.47210429258, Final residual = 0.040869459968, No Iterations 7
linear solve U 3253704
[OGL LOG][Proc: 0]global_index_init : 1344 mu s
[OGL LOG][Proc: 0]global_index_init : 7 mu s
[OGL LOG][Proc: 0]global_index_init : 12 mu s
[OGL LOG][Proc: 0]global_index_init : 10 mu s
[OGL LOG][Proc: 0]update_host_matrix_data : 71886 mu s
[OGL LOG][Proc: 0]gather_global_matrix : 1 mu s
[OGL LOG][Proc: 0]init_precond : 40638326 mu s
[OGL LOG][Proc: 0]generate_solver : 2 mu s
[OGL LOG][Proc: 0]solve : 5364992 mu s
[OGL LOG][Proc: 0]retrieve_result_from_device : 748161 mu s
ISAIhipGKOBiCGStab:  Solving for p, Initial residual = 0.960283085835, Final residual = 0.00882760809262, No Iterations 28
linear solve p 48323180
time step continuity errors : sum local = 4299.61794748, global = 0.000225550676685, cumulative = 0.00045919520938
DILUPBiCGStab:  Solving for omega, Initial residual = 0.085352937207, Final residual = 0.000369971624941, No Iterations 1
linear solve omega 222031
DILUPBiCGStab:  Solving for k, Initial residual = 0.134469446427, Final residual = 0.000302906265921, No Iterations 1
linear solve k 244877
ExecutionTime = 216.38 s  ClockTime = 216 s

End

Finalising parallel run
================================================================================
hash: e3531443801daa4f9e3b4ab3ed79ee12
/*---------------------------------------------------------------------------*\
| =========                 |                                                 |
| \\      /  F ield         | OpenFOAM: The Open Source CFD Toolbox           |
|  \\    /   O peration     | Version:  v2106                                 |
|   \\  /    A nd           | Website:  www.openfoam.com                      |
|    \\/     M anipulation  |                                                 |
\*---------------------------------------------------------------------------*/
Build  : f815a12bba-20210902 OPENFOAM=2106
Arch   : "LSB;label=32;scalar=64"
Exec   : simpleFoam -parallel
Date   : Jan 20 2022
Time   : 14:06:47
Host   : nla-gpu2.ianm.kit.edu
PID    : 1800679
I/O    : uncollated
Case   : /home/greole/data/code/ogl_labbook/motorcycle_solver/solver/Variation_mesh/Large/Variation_matrix_solver/BiCGStab_ISAI_HIP/Variation_mpiRank/4/base
nProcs : 4
Hosts  :
(
    (nla-gpu2.ianm.kit.edu 4)
)
Pstream initialized with:
    floatTransfer      : 0
    nProcsSimpleSum    : 0
    commsType          : nonBlocking
    polling iterations : 0
trapFpe: Floating point exception trapping enabled (FOAM_SIGFPE).
fileModificationChecking : Monitoring run-time modified files using timeStampMaster (fileModificationSkew 5, maxFileModificationPolls 20)
allowSystemOperations : Allowing user-supplied system call operations

// * * * * * * * * * * * * * * * * * * * * * * * * * * * * * * * * * * * * * //
Create time

Create mesh for time = 0


SIMPLE: no convergence criteria found. Calculations will run for 3 steps.

Reading field p

Reading field U

Reading/calculating face flux field phi

Selecting incompressible transport model Newtonian
Selecting turbulence model type RAS
Selecting RAS turbulence model kOmegaSST
Selecting patchDistMethod meshWave
RAS
{
    RASModel        kOmegaSST;
    turbulence      on;
    printCoeffs     on;
    alphaK1         0.85;
    alphaK2         1;
    alphaOmega1     0.5;
    alphaOmega2     0.856;
    gamma1          0.555555555556;
    gamma2          0.44;
    beta1           0.075;
    beta2           0.0828;
    betaStar        0.09;
    a1              0.31;
    b1              1;
    c1              10;
    F3              false;
    decayControl    false;
    kInf            0;
    omegaInf        0;
}

No MRF models present

No finite volume options present

Starting time loop

Time = 1

DILUPBiCGStab:  Solving for Ux, Initial residual = 0.0298408184804, Final residual = 0.000860482801151, No Iterations 4
DILUPBiCGStab:  Solving for Uy, Initial residual = 0.416436009193, Final residual = 0.0300438011241, No Iterations 3
DILUPBiCGStab:  Solving for Uz, Initial residual = 0.262309070455, Final residual = 0.010828825442, No Iterations 3
linear solve U 6644733
[OGL LOG][Proc: 0]global_index_init : 1583 mu s
[OGL LOG][Proc: 0]global_index_init : 3 mu s
[OGL LOG][Proc: 0]global_index_init : 1 mu s
[OGL LOG][Proc: 0]global_index_init : 2 mu s
[OGL LOG][Proc: 0]init_host_sparsity_pattern : 17798849 mu s
[OGL LOG][Proc: 0]update_host_matrix_data : 255693 mu s
[OGL LOG][Proc: 0]convert_coo_to_csr : 12707 mu s
[OGL LOG][Proc: 0]gather_global_matrix : 1 mu s
[OGL LOG][Proc: 0]init_precond : 6339010 mu s
[OGL LOG][Proc: 0]generate_solver : 15 mu s
[OGL LOG][Proc: 0]solve : 1824291 mu s
[OGL LOG][Proc: 0]retrieve_result_from_device : 78573 mu s
ISAIhipGKOBiCGStab:  Solving for p, Initial residual = 1, Final residual = 0.00759707425128, No Iterations 62
linear solve p 32968761
time step continuity errors : sum local = 0.000625107595496, global = 5.68250116572e-05, cumulative = 5.68250116572e-05
DILUPBiCGStab:  Solving for omega, Initial residual = 0.00231350526681, Final residual = 5.52683233236e-05, No Iterations 1
linear solve omega 933561
bounding omega, min: -64357.1517772 max: 2809464.71271 average: 2480.24189228
DILUPBiCGStab:  Solving for k, Initial residual = 0.999999998239, Final residual = 0.0409701789775, No Iterations 1
linear solve k 921423
ExecutionTime = 157.21 s  ClockTime = 157 s

Time = 2

DILUPBiCGStab:  Solving for Ux, Initial residual = 0.0152141492163, Final residual = 0.000971832706464, No Iterations 3
DILUPBiCGStab:  Solving for Uy, Initial residual = 0.264287434946, Final residual = 0.0160766530013, No Iterations 3
DILUPBiCGStab:  Solving for Uz, Initial residual = 0.127852479161, Final residual = 0.00649082241854, No Iterations 3
linear solve U 5390537
[OGL LOG][Proc: 0]global_index_init : 998 mu s
[OGL LOG][Proc: 0]global_index_init : 4 mu s
[OGL LOG][Proc: 0]global_index_init : 2 mu s
[OGL LOG][Proc: 0]global_index_init : 1 mu s
[OGL LOG][Proc: 0]update_host_matrix_data : 217729 mu s
[OGL LOG][Proc: 0]gather_global_matrix : 1 mu s
[OGL LOG][Proc: 0]init_precond : 6337110 mu s
[OGL LOG][Proc: 0]generate_solver : 1 mu s
[OGL LOG][Proc: 0]solve : 1745006 mu s
[OGL LOG][Proc: 0]retrieve_result_from_device : 79209 mu s
ISAIhipGKOBiCGStab:  Solving for p, Initial residual = 0.0348222607301, Final residual = 0.000339589413304, No Iterations 62
linear solve p 13380048
time step continuity errors : sum local = 0.0803823868199, global = 0.000171943481005, cumulative = 0.000228768492662
DILUPBiCGStab:  Solving for omega, Initial residual = 0.00163931199235, Final residual = 4.51134605117e-05, No Iterations 1
linear solve omega 916446
bounding omega, min: -210.912664438 max: 2809505.98287 average: 2816.16788441
DILUPBiCGStab:  Solving for k, Initial residual = 0.0300868631701, Final residual = 0.00114081919659, No Iterations 1
linear solve k 928559
ExecutionTime = 194.39 s  ClockTime = 194 s

Time = 3

DILUPBiCGStab:  Solving for Ux, Initial residual = 0.061255068055, Final residual = 0.00474707669988, No Iterations 7
DILUPBiCGStab:  Solving for Uy, Initial residual = 0.468076627103, Final residual = 0.0307118500296, No Iterations 7
DILUPBiCGStab:  Solving for Uz, Initial residual = 0.44309791217, Final residual = 0.0409184180024, No Iterations 6
linear solve U 12328557
[OGL LOG][Proc: 0]global_index_init : 973 mu s
[OGL LOG][Proc: 0]global_index_init : 2 mu s
[OGL LOG][Proc: 0]global_index_init : 2 mu s
[OGL LOG][Proc: 0]global_index_init : 2 mu s
[OGL LOG][Proc: 0]update_host_matrix_data : 218286 mu s
[OGL LOG][Proc: 0]gather_global_matrix : 1 mu s
[OGL LOG][Proc: 0]init_precond : 6339478 mu s
[OGL LOG][Proc: 0]generate_solver : 1 mu s
[OGL LOG][Proc: 0]solve : 766914 mu s
[OGL LOG][Proc: 0]retrieve_result_from_device : 80250 mu s
ISAIhipGKOBiCGStab:  Solving for p, Initial residual = 0.941362884114, Final residual = 0.00754384998684, No Iterations 27
linear solve p 12403622
time step continuity errors : sum local = 2968.02565391, global = 0.000231485731965, cumulative = 0.000460254224627
DILUPBiCGStab:  Solving for omega, Initial residual = 0.0813971603833, Final residual = 0.000330435184975, No Iterations 1
linear solve omega 650679
bounding omega, min: -921.95434981 max: 2808964.61028 average: 3267.81076934
DILUPBiCGStab:  Solving for k, Initial residual = 0.133183274791, Final residual = 0.000320184583746, No Iterations 1
linear solve k 918818
ExecutionTime = 237.26 s  ClockTime = 237 s

End

Finalising parallel run
================================================================================
hash: 1a5bb658aed2721e9f43e36cb81c22ff
/*---------------------------------------------------------------------------*\
| =========                 |                                                 |
| \\      /  F ield         | OpenFOAM: The Open Source CFD Toolbox           |
|  \\    /   O peration     | Version:  v2106                                 |
|   \\  /    A nd           | Website:  www.openfoam.com                      |
|    \\/     M anipulation  |                                                 |
\*---------------------------------------------------------------------------*/
Build  : f815a12bba-20210902 OPENFOAM=2106
Arch   : "LSB;label=32;scalar=64"
Exec   : simpleFoam -parallel
Date   : Jan 20 2022
Time   : 14:38:42
Host   : nla-gpu2.ianm.kit.edu
PID    : 1820643
I/O    : uncollated
Case   : /home/greole/data/code/ogl_labbook/motorcycle_solver/solver/Variation_mesh/Large/Variation_matrix_solver/CG_BJ_HIP/Variation_mpiRank/4/base
nProcs : 4
Hosts  :
(
    (nla-gpu2.ianm.kit.edu 4)
)
Pstream initialized with:
    floatTransfer      : 0
    nProcsSimpleSum    : 0
    commsType          : nonBlocking
    polling iterations : 0
trapFpe: Floating point exception trapping enabled (FOAM_SIGFPE).
fileModificationChecking : Monitoring run-time modified files using timeStampMaster (fileModificationSkew 5, maxFileModificationPolls 20)
allowSystemOperations : Allowing user-supplied system call operations

// * * * * * * * * * * * * * * * * * * * * * * * * * * * * * * * * * * * * * //
Create time

Create mesh for time = 0


SIMPLE: no convergence criteria found. Calculations will run for 3 steps.

Reading field p

Reading field U

Reading/calculating face flux field phi

Selecting incompressible transport model Newtonian
Selecting turbulence model type RAS
Selecting RAS turbulence model kOmegaSST
Selecting patchDistMethod meshWave
RAS
{
    RASModel        kOmegaSST;
    turbulence      on;
    printCoeffs     on;
    alphaK1         0.85;
    alphaK2         1;
    alphaOmega1     0.5;
    alphaOmega2     0.856;
    gamma1          0.555555555556;
    gamma2          0.44;
    beta1           0.075;
    beta2           0.0828;
    betaStar        0.09;
    a1              0.31;
    b1              1;
    c1              10;
    F3              false;
    decayControl    false;
    kInf            0;
    omegaInf        0;
}

No MRF models present

No finite volume options present

Starting time loop

Time = 1

DILUPBiCGStab:  Solving for Ux, Initial residual = 0.0298408184804, Final residual = 0.000860482801151, No Iterations 4
DILUPBiCGStab:  Solving for Uy, Initial residual = 0.416436009193, Final residual = 0.0300438011241, No Iterations 3
DILUPBiCGStab:  Solving for Uz, Initial residual = 0.262309070455, Final residual = 0.010828825442, No Iterations 3
linear solve U 6657754
[OGL LOG][Proc: 0]global_index_init : 59 mu s
[OGL LOG][Proc: 0]global_index_init : 2 mu s
[OGL LOG][Proc: 0]global_index_init : 2 mu s
[OGL LOG][Proc: 0]global_index_init : 2 mu s
[OGL LOG][Proc: 0]init_host_sparsity_pattern : 17881849 mu s
[OGL LOG][Proc: 0]update_host_matrix_data : 256084 mu s
[OGL LOG][Proc: 0]convert_coo_to_csr : 12015 mu s
[OGL LOG][Proc: 0]gather_global_matrix : 1 mu s
 block size 1
[OGL LOG][Proc: 0]init_precond : 47821 mu s
[OGL LOG][Proc: 0]generate_solver : 15 mu s
[OGL LOG][Proc: 0]solve : 3375778 mu s
[OGL LOG][Proc: 0]retrieve_result_from_device : 67779 mu s
BJhipGKOCG:  Solving for p, Initial residual = 1, Final residual = 0.00993657440708, No Iterations 313
linear solve p 28293275
time step continuity errors : sum local = 0.000817607927687, global = 2.54437142944e-05, cumulative = 2.54437142944e-05
DILUPBiCGStab:  Solving for omega, Initial residual = 0.00231302827016, Final residual = 5.52255337322e-05, No Iterations 1
linear solve omega 926906
bounding omega, min: -64292.1823426 max: 2809464.71271 average: 2480.73744649
DILUPBiCGStab:  Solving for k, Initial residual = 0.999999998225, Final residual = 0.0409563433503, No Iterations 1
linear solve k 924443
ExecutionTime = 150.19 s  ClockTime = 150 s

Time = 2

DILUPBiCGStab:  Solving for Ux, Initial residual = 0.015282605811, Final residual = 0.000978438194626, No Iterations 3
DILUPBiCGStab:  Solving for Uy, Initial residual = 0.264123240448, Final residual = 0.0161359653388, No Iterations 3
DILUPBiCGStab:  Solving for Uz, Initial residual = 0.131459342348, Final residual = 0.00667552958981, No Iterations 3
linear solve U 5400897
[OGL LOG][Proc: 0]global_index_init : 487 mu s
[OGL LOG][Proc: 0]global_index_init : 3 mu s
[OGL LOG][Proc: 0]global_index_init : 3 mu s
[OGL LOG][Proc: 0]global_index_init : 2 mu s
[OGL LOG][Proc: 0]update_host_matrix_data : 217168 mu s
[OGL LOG][Proc: 0]gather_global_matrix : 1 mu s
 block size 1
[OGL LOG][Proc: 0]init_precond : 19901 mu s
[OGL LOG][Proc: 0]generate_solver : 2 mu s
[OGL LOG][Proc: 0]solve : 3055510 mu s
[OGL LOG][Proc: 0]retrieve_result_from_device : 68165 mu s
BJhipGKOCG:  Solving for p, Initial residual = 0.0325853568245, Final residual = 0.000285129211115, No Iterations 301
linear solve p 8344634
time step continuity errors : sum local = 0.0798875350624, global = -5.24314022428e-05, cumulative = -2.69876879484e-05
DILUPBiCGStab:  Solving for omega, Initial residual = 0.00162439095036, Final residual = 4.48983587412e-05, No Iterations 1
linear solve omega 931196
bounding omega, min: -211.097987823 max: 2809506.72859 average: 2816.10937088
DILUPBiCGStab:  Solving for k, Initial residual = 0.0301052670094, Final residual = 0.00114314521806, No Iterations 1
linear solve k 930767
ExecutionTime = 182.4 s  ClockTime = 182 s

Time = 3

DILUPBiCGStab:  Solving for Ux, Initial residual = 0.0556690582687, Final residual = 0.00443470471125, No Iterations 7
DILUPBiCGStab:  Solving for Uy, Initial residual = 0.465289770418, Final residual = 0.0285193630192, No Iterations 7
DILUPBiCGStab:  Solving for Uz, Initial residual = 0.440742257398, Final residual = 0.0405695143922, No Iterations 7
linear solve U 12636197
[OGL LOG][Proc: 0]global_index_init : 220 mu s
[OGL LOG][Proc: 0]global_index_init : 4 mu s
[OGL LOG][Proc: 0]global_index_init : 3 mu s
[OGL LOG][Proc: 0]global_index_init : 2 mu s
[OGL LOG][Proc: 0]update_host_matrix_data : 216681 mu s
[OGL LOG][Proc: 0]gather_global_matrix : 1 mu s
 block size 1
[OGL LOG][Proc: 0]init_precond : 19959 mu s
[OGL LOG][Proc: 0]generate_solver : 1 mu s
[OGL LOG][Proc: 0]solve : 2454411 mu s
[OGL LOG][Proc: 0]retrieve_result_from_device : 72150 mu s
BJhipGKOCG:  Solving for p, Initial residual = 0.943977462812, Final residual = 0.00247559084053, No Iterations 241
linear solve p 7746894
time step continuity errors : sum local = 2956.1305306, global = -0.00459801967055, cumulative = -0.00462500735849
DILUPBiCGStab:  Solving for omega, Initial residual = 0.0816118434231, Final residual = 0.000335586589065, No Iterations 1
linear solve omega 661747
bounding omega, min: -901.246403559 max: 2808958.54838 average: 3270.76402473
DILUPBiCGStab:  Solving for k, Initial residual = 0.132638248475, Final residual = 0.000316798203308, No Iterations 1
linear solve k 937234
ExecutionTime = 221.06 s  ClockTime = 221 s

End

Finalising parallel run
================================================================================
hash: 5cb4ca5695bf160579dea925f0834103
/*---------------------------------------------------------------------------*\
| =========                 |                                                 |
| \\      /  F ield         | OpenFOAM: The Open Source CFD Toolbox           |
|  \\    /   O peration     | Version:  v2106                                 |
|   \\  /    A nd           | Website:  www.openfoam.com                      |
|    \\/     M anipulation  |                                                 |
\*---------------------------------------------------------------------------*/
Build  : f815a12bba-20210902 OPENFOAM=2106
Arch   : "LSB;label=32;scalar=64"
Exec   : simpleFoam -parallel
Date   : Jan 20 2022
Time   : 14:42:25
Host   : nla-gpu2.ianm.kit.edu
PID    : 1822702
I/O    : uncollated
Case   : /home/greole/data/code/ogl_labbook/motorcycle_solver/solver/Variation_mesh/Large/Variation_matrix_solver/CG_BJ_HIP/Variation_mpiRank/8/base
nProcs : 8
Hosts  :
(
    (nla-gpu2.ianm.kit.edu 8)
)
Pstream initialized with:
    floatTransfer      : 0
    nProcsSimpleSum    : 0
    commsType          : nonBlocking
    polling iterations : 0
trapFpe: Floating point exception trapping enabled (FOAM_SIGFPE).
fileModificationChecking : Monitoring run-time modified files using timeStampMaster (fileModificationSkew 5, maxFileModificationPolls 20)
allowSystemOperations : Allowing user-supplied system call operations

// * * * * * * * * * * * * * * * * * * * * * * * * * * * * * * * * * * * * * //
Create time

Create mesh for time = 0


SIMPLE: no convergence criteria found. Calculations will run for 3 steps.

Reading field p

Reading field U

Reading/calculating face flux field phi

Selecting incompressible transport model Newtonian
Selecting turbulence model type RAS
Selecting RAS turbulence model kOmegaSST
Selecting patchDistMethod meshWave
RAS
{
    RASModel        kOmegaSST;
    turbulence      on;
    printCoeffs     on;
    alphaK1         0.85;
    alphaK2         1;
    alphaOmega1     0.5;
    alphaOmega2     0.856;
    gamma1          0.555555555556;
    gamma2          0.44;
    beta1           0.075;
    beta2           0.0828;
    betaStar        0.09;
    a1              0.31;
    b1              1;
    c1              10;
    F3              false;
    decayControl    false;
    kInf            0;
    omegaInf        0;
}

No MRF models present

No finite volume options present

Starting time loop

Time = 1

DILUPBiCGStab:  Solving for Ux, Initial residual = 0.0298408184793, Final residual = 0.00218216071274, No Iterations 3
DILUPBiCGStab:  Solving for Uy, Initial residual = 0.416436009197, Final residual = 0.0316946277838, No Iterations 3
DILUPBiCGStab:  Solving for Uz, Initial residual = 0.262309070484, Final residual = 0.0117523460212, No Iterations 3
linear solve U 3288439
[OGL LOG][Proc: 0]global_index_init : 27655 mu s
[OGL LOG][Proc: 0]global_index_init : 3 mu s
[OGL LOG][Proc: 0]global_index_init : 4 mu s
[OGL LOG][Proc: 0]global_index_init : 5 mu s
[OGL LOG][Proc: 0]init_host_sparsity_pattern : 47889884 mu s
[OGL LOG][Proc: 0]update_host_matrix_data : 128222 mu s
[OGL LOG][Proc: 0]convert_coo_to_csr : 11859 mu s
[OGL LOG][Proc: 0]gather_global_matrix : 1 mu s
 block size 1
[OGL LOG][Proc: 0]init_precond : 47878 mu s
[OGL LOG][Proc: 0]generate_solver : 19 mu s
[OGL LOG][Proc: 0]solve : 3371794 mu s
[OGL LOG][Proc: 0]retrieve_result_from_device : 72731 mu s
BJhipGKOCG:  Solving for p, Initial residual = 1, Final residual = 0.00994635933936, No Iterations 311
linear solve p 62629016
time step continuity errors : sum local = 0.000813064304687, global = 1.74566960869e-05, cumulative = 1.74566960869e-05
DILUPBiCGStab:  Solving for omega, Initial residual = 0.00231432608401, Final residual = 5.56912234479e-05, No Iterations 1
linear solve omega 545694
bounding omega, min: -63946.3748575 max: 2809464.71271 average: 2480.53191328
DILUPBiCGStab:  Solving for k, Initial residual = 0.999999998376, Final residual = 0.0429181013086, No Iterations 1
linear solve k 484225
ExecutionTime = 128.94 s  ClockTime = 129 s

Time = 2

DILUPBiCGStab:  Solving for Ux, Initial residual = 0.0152130793103, Final residual = 0.00100535055216, No Iterations 3
DILUPBiCGStab:  Solving for Uy, Initial residual = 0.261554409166, Final residual = 0.0185837332341, No Iterations 3
DILUPBiCGStab:  Solving for Uz, Initial residual = 0.130091201876, Final residual = 0.00669531915082, No Iterations 3
linear solve U 2797302
[OGL LOG][Proc: 0]global_index_init : 1933 mu s
[OGL LOG][Proc: 0]global_index_init : 4 mu s
[OGL LOG][Proc: 0]global_index_init : 5 mu s
[OGL LOG][Proc: 0]global_index_init : 5 mu s
[OGL LOG][Proc: 0]update_host_matrix_data : 110726 mu s
[OGL LOG][Proc: 0]gather_global_matrix : 0 mu s
 block size 1
[OGL LOG][Proc: 0]init_precond : 19347 mu s
[OGL LOG][Proc: 0]generate_solver : 2 mu s
[OGL LOG][Proc: 0]solve : 3070678 mu s
[OGL LOG][Proc: 0]retrieve_result_from_device : 79784 mu s
BJhipGKOCG:  Solving for p, Initial residual = 0.0343599952087, Final residual = 0.00028601902292, No Iterations 301
linear solve p 6148576
time step continuity errors : sum local = 0.0940240499651, global = -5.10145942283e-05, cumulative = -3.35578981415e-05
DILUPBiCGStab:  Solving for omega, Initial residual = 0.00171809510624, Final residual = 4.50416810329e-05, No Iterations 1
linear solve omega 538420
bounding omega, min: -209.903727619 max: 2809559.188 average: 2821.57738125
DILUPBiCGStab:  Solving for k, Initial residual = 0.0309495341993, Final residual = 0.00117610610874, No Iterations 1
linear solve k 492741
ExecutionTime = 147.54 s  ClockTime = 147 s

Time = 3

DILUPBiCGStab:  Solving for Ux, Initial residual = 0.0756181725436, Final residual = 0.00157034822689, No Iterations 9
DILUPBiCGStab:  Solving for Uy, Initial residual = 0.501548377805, Final residual = 0.0408147226603, No Iterations 7
DILUPBiCGStab:  Solving for Uz, Initial residual = 0.460480055551, Final residual = 0.0340103316604, No Iterations 7
linear solve U 6921612
[OGL LOG][Proc: 0]global_index_init : 3921 mu s
[OGL LOG][Proc: 0]global_index_init : 4 mu s
[OGL LOG][Proc: 0]global_index_init : 5 mu s
[OGL LOG][Proc: 0]global_index_init : 6 mu s
[OGL LOG][Proc: 0]update_host_matrix_data : 111976 mu s
[OGL LOG][Proc: 0]gather_global_matrix : 1 mu s
 block size 1
[OGL LOG][Proc: 0]init_precond : 19407 mu s
[OGL LOG][Proc: 0]generate_solver : 1 mu s
[OGL LOG][Proc: 0]solve : 2454118 mu s
[OGL LOG][Proc: 0]retrieve_result_from_device : 79560 mu s
BJhipGKOCG:  Solving for p, Initial residual = 0.963870819454, Final residual = 0.00320671422661, No Iterations 241
linear solve p 5540309
time step continuity errors : sum local = 4011.7242217, global = -0.0138418361249, cumulative = -0.0138753940231
DILUPBiCGStab:  Solving for omega, Initial residual = 0.0989432022789, Final residual = 0.000387201812786, No Iterations 1
linear solve omega 396424
bounding omega, min: -859.808526363 max: 2809004.99325 average: 3323.27739211
DILUPBiCGStab:  Solving for k, Initial residual = 0.130175287714, Final residual = 0.000237749800522, No Iterations 1
linear solve k 485587
ExecutionTime = 169.55 s  ClockTime = 169 s

End

Finalising parallel run
================================================================================
hash: 09ad171ab9ce2a5dc4dbe5692632f3a8
/*---------------------------------------------------------------------------*\
| =========                 |                                                 |
| \\      /  F ield         | OpenFOAM: The Open Source CFD Toolbox           |
|  \\    /   O peration     | Version:  v2106                                 |
|   \\  /    A nd           | Website:  www.openfoam.com                      |
|    \\/     M anipulation  |                                                 |
\*---------------------------------------------------------------------------*/
Build  : f815a12bba-20210902 OPENFOAM=2106
Arch   : "LSB;label=32;scalar=64"
Exec   : simpleFoam -parallel
Date   : Jan 20 2022
Time   : 14:45:16
Host   : nla-gpu2.ianm.kit.edu
PID    : 1824258
I/O    : uncollated
Case   : /home/greole/data/code/ogl_labbook/motorcycle_solver/solver/Variation_mesh/Large/Variation_matrix_solver/BiCGStab_ISAI_HIP/Variation_mpiRank/16/base
nProcs : 16
Hosts  :
(
    (nla-gpu2.ianm.kit.edu 16)
)
Pstream initialized with:
    floatTransfer      : 0
    nProcsSimpleSum    : 0
    commsType          : nonBlocking
    polling iterations : 0
trapFpe: Floating point exception trapping enabled (FOAM_SIGFPE).
fileModificationChecking : Monitoring run-time modified files using timeStampMaster (fileModificationSkew 5, maxFileModificationPolls 20)
allowSystemOperations : Allowing user-supplied system call operations

// * * * * * * * * * * * * * * * * * * * * * * * * * * * * * * * * * * * * * //
Create time

Create mesh for time = 0


SIMPLE: no convergence criteria found. Calculations will run for 3 steps.

Reading field p

Reading field U

Reading/calculating face flux field phi

Selecting incompressible transport model Newtonian
Selecting turbulence model type RAS
Selecting RAS turbulence model kOmegaSST
Selecting patchDistMethod meshWave
RAS
{
    RASModel        kOmegaSST;
    turbulence      on;
    printCoeffs     on;
    alphaK1         0.85;
    alphaK2         1;
    alphaOmega1     0.5;
    alphaOmega2     0.856;
    gamma1          0.555555555556;
    gamma2          0.44;
    beta1           0.075;
    beta2           0.0828;
    betaStar        0.09;
    a1              0.31;
    b1              1;
    c1              10;
    F3              false;
    decayControl    false;
    kInf            0;
    omegaInf        0;
}

No MRF models present

No finite volume options present

Starting time loop

Time = 1

DILUPBiCGStab:  Solving for Ux, Initial residual = 0.029840818522, Final residual = 0.000890765537447, No Iterations 4
DILUPBiCGStab:  Solving for Uy, Initial residual = 0.416436009777, Final residual = 0.0325999042504, No Iterations 3
DILUPBiCGStab:  Solving for Uz, Initial residual = 0.262309070745, Final residual = 0.0119350495045, No Iterations 3
linear solve U 2112675
[OGL LOG][Proc: 0]global_index_init : 43259 mu s
[OGL LOG][Proc: 0]global_index_init : 5 mu s
[OGL LOG][Proc: 0]global_index_init : 5 mu s
[OGL LOG][Proc: 0]global_index_init : 5 mu s
[OGL LOG][Proc: 0]init_host_sparsity_pattern : 29877504 mu s
[OGL LOG][Proc: 0]update_host_matrix_data : 95863 mu s
[OGL LOG][Proc: 0]convert_coo_to_csr : 12960 mu s
[OGL LOG][Proc: 0]gather_global_matrix : 1 mu s
[OGL LOG][Proc: 0]init_precond : 16312433 mu s
[OGL LOG][Proc: 0]generate_solver : 17 mu s
[OGL LOG][Proc: 0]solve : 5347899 mu s
[OGL LOG][Proc: 0]retrieve_result_from_device : 77353 mu s
ISAIhipGKOBiCGStab:  Solving for p, Initial residual = 1, Final residual = 0.00756358024625, No Iterations 68
linear solve p 63544139
time step continuity errors : sum local = 0.000625158934618, global = 5.36285156031e-05, cumulative = 5.36285156031e-05
DILUPBiCGStab:  Solving for omega, Initial residual = 0.0023135470962, Final residual = 5.61709880361e-05, No Iterations 1
linear solve omega 359973
bounding omega, min: -64430.3915737 max: 2809464.71271 average: 2480.00696923
DILUPBiCGStab:  Solving for k, Initial residual = 0.999999998687, Final residual = 0.0418676440301, No Iterations 1
linear solve k 300356
ExecutionTime = 101.13 s  ClockTime = 101 s

Time = 2

DILUPBiCGStab:  Solving for Ux, Initial residual = 0.015218195542, Final residual = 0.00104065577871, No Iterations 3
DILUPBiCGStab:  Solving for Uy, Initial residual = 0.264027182095, Final residual = 0.0178101295449, No Iterations 3
DILUPBiCGStab:  Solving for Uz, Initial residual = 0.127971294154, Final residual = 0.00666267237038, No Iterations 3
linear solve U 1757709
[OGL LOG][Proc: 0]global_index_init : 1670 mu s
[OGL LOG][Proc: 0]global_index_init : 6 mu s
[OGL LOG][Proc: 0]global_index_init : 5 mu s
[OGL LOG][Proc: 0]global_index_init : 7 mu s
[OGL LOG][Proc: 0]update_host_matrix_data : 82656 mu s
[OGL LOG][Proc: 0]gather_global_matrix : 4 mu s
[OGL LOG][Proc: 0]init_precond : 16070659 mu s
[OGL LOG][Proc: 0]generate_solver : 2 mu s
[OGL LOG][Proc: 0]solve : 4090400 mu s
[OGL LOG][Proc: 0]retrieve_result_from_device : 79343 mu s
ISAIhipGKOBiCGStab:  Solving for p, Initial residual = 0.0364028268029, Final residual = 0.000344508108673, No Iterations 61
linear solve p 22116475
time step continuity errors : sum local = 0.105546696081, global = 0.000191201677798, cumulative = 0.000244830193401
DILUPBiCGStab:  Solving for omega, Initial residual = 0.00179686397181, Final residual = 4.51097975177e-05, No Iterations 1
linear solve omega 360273
bounding omega, min: -220.33966647 max: 2809502.03812 average: 2822.03890917
DILUPBiCGStab:  Solving for k, Initial residual = 0.0316490896854, Final residual = 0.00114817756053, No Iterations 1
linear solve k 301259
ExecutionTime = 131.05 s  ClockTime = 131 s

Time = 3

DILUPBiCGStab:  Solving for Ux, Initial residual = 0.0750717932103, Final residual = 0.00628892108797, No Iterations 7
DILUPBiCGStab:  Solving for Uy, Initial residual = 0.502066185042, Final residual = 0.0406657278022, No Iterations 7
DILUPBiCGStab:  Solving for Uz, Initial residual = 0.484379764091, Final residual = 0.037611635084, No Iterations 6
linear solve U 3963247
[OGL LOG][Proc: 0]global_index_init : 1440 mu s
[OGL LOG][Proc: 0]global_index_init : 7 mu s
[OGL LOG][Proc: 0]global_index_init : 8 mu s
[OGL LOG][Proc: 0]global_index_init : 8 mu s
[OGL LOG][Proc: 0]update_host_matrix_data : 84744 mu s
[OGL LOG][Proc: 0]gather_global_matrix : 1 mu s
[OGL LOG][Proc: 0]init_precond : 15998049 mu s
[OGL LOG][Proc: 0]generate_solver : 2 mu s
[OGL LOG][Proc: 0]solve : 1987379 mu s
[OGL LOG][Proc: 0]retrieve_result_from_device : 76445 mu s
ISAIhipGKOBiCGStab:  Solving for p, Initial residual = 0.957359643676, Final residual = 0.00830242992882, No Iterations 28
linear solve p 19908622
time step continuity errors : sum local = 4076.27966119, global = 0.000229752188899, cumulative = 0.0004745823823
DILUPBiCGStab:  Solving for omega, Initial residual = 0.0857146856186, Final residual = 0.00035066705186, No Iterations 1
linear solve omega 269585
DILUPBiCGStab:  Solving for k, Initial residual = 0.13173537086, Final residual = 0.000297837557096, No Iterations 1
linear solve k 304272
ExecutionTime = 160.73 s  ClockTime = 160 s

End

Finalising parallel run
================================================================================
hash: d64fb5e0fa36a6a262e20ef961f8ef66
/*---------------------------------------------------------------------------*\
| =========                 |                                                 |
| \\      /  F ield         | OpenFOAM: The Open Source CFD Toolbox           |
|  \\    /   O peration     | Version:  v2106                                 |
|   \\  /    A nd           | Website:  www.openfoam.com                      |
|    \\/     M anipulation  |                                                 |
\*---------------------------------------------------------------------------*/
Build  : f815a12bba-20210902 OPENFOAM=2106
Arch   : "LSB;label=32;scalar=64"
Exec   : simpleFoam -parallel
Date   : Jan 20 2022
Time   : 14:47:58
Host   : nla-gpu2.ianm.kit.edu
PID    : 1825846
I/O    : uncollated
Case   : /home/greole/data/code/ogl_labbook/motorcycle_solver/solver/Variation_mesh/Large/Variation_matrix_solver/BiCGStab_ISAI_HIP/Variation_mpiRank/32/base
nProcs : 32
Hosts  :
(
    (nla-gpu2.ianm.kit.edu 32)
)
Pstream initialized with:
    floatTransfer      : 0
    nProcsSimpleSum    : 0
    commsType          : nonBlocking
    polling iterations : 0
trapFpe: Floating point exception trapping enabled (FOAM_SIGFPE).
fileModificationChecking : Monitoring run-time modified files using timeStampMaster (fileModificationSkew 5, maxFileModificationPolls 20)
allowSystemOperations : Allowing user-supplied system call operations

// * * * * * * * * * * * * * * * * * * * * * * * * * * * * * * * * * * * * * //
Create time

Create mesh for time = 0


SIMPLE: no convergence criteria found. Calculations will run for 3 steps.

Reading field p

Reading field U

Reading/calculating face flux field phi

Selecting incompressible transport model Newtonian
Selecting turbulence model type RAS
Selecting RAS turbulence model kOmegaSST
Selecting patchDistMethod meshWave
RAS
{
    RASModel        kOmegaSST;
    turbulence      on;
    printCoeffs     on;
    alphaK1         0.85;
    alphaK2         1;
    alphaOmega1     0.5;
    alphaOmega2     0.856;
    gamma1          0.555555555556;
    gamma2          0.44;
    beta1           0.075;
    beta2           0.0828;
    betaStar        0.09;
    a1              0.31;
    b1              1;
    c1              10;
    F3              false;
    decayControl    false;
    kInf            0;
    omegaInf        0;
}

No MRF models present

No finite volume options present

Starting time loop

Time = 1

DILUPBiCGStab:  Solving for Ux, Initial residual = 0.0298408185319, Final residual = 0.0023442936585, No Iterations 3
DILUPBiCGStab:  Solving for Uy, Initial residual = 0.416436010106, Final residual = 0.0343159774748, No Iterations 3
DILUPBiCGStab:  Solving for Uz, Initial residual = 0.262309071038, Final residual = 0.0121250711235, No Iterations 3
linear solve U 1623878
[OGL LOG][Proc: 0]global_index_init : 253025 mu s
[OGL LOG][Proc: 0]global_index_init : 28 mu s
[OGL LOG][Proc: 0]global_index_init : 8 mu s
[OGL LOG][Proc: 0]global_index_init : 8 mu s
[OGL LOG][Proc: 0]init_host_sparsity_pattern : 5979189 mu s
[OGL LOG][Proc: 0]update_host_matrix_data : 46979 mu s
[OGL LOG][Proc: 0]convert_coo_to_csr : 12245 mu s
[OGL LOG][Proc: 0]gather_global_matrix : 0 mu s
[OGL LOG][Proc: 0]init_precond : 43066260 mu s
[OGL LOG][Proc: 0]generate_solver : 20 mu s
[OGL LOG][Proc: 0]solve : 13113247 mu s
[OGL LOG][Proc: 0]retrieve_result_from_device : 86468 mu s
ISAIhipGKOBiCGStab:  Solving for p, Initial residual = 1, Final residual = 0.00881098409324, No Iterations 62
linear solve p 81614460
time step continuity errors : sum local = 0.000724734521771, global = 4.74190984503e-05, cumulative = 4.74190984503e-05
DILUPBiCGStab:  Solving for omega, Initial residual = 0.00231554282829, Final residual = 5.704766428e-05, No Iterations 1
linear solve omega 304073
bounding omega, min: -63863.1195669 max: 2809464.71271 average: 2479.66311224
DILUPBiCGStab:  Solving for k, Initial residual = 0.999999999288, Final residual = 0.0479620842605, No Iterations 1
linear solve k 244367
ExecutionTime = 104.43 s  ClockTime = 104 s

Time = 2

DILUPBiCGStab:  Solving for Ux, Initial residual = 0.0151551860993, Final residual = 0.00106478230003, No Iterations 3
DILUPBiCGStab:  Solving for Uy, Initial residual = 0.262506383696, Final residual = 0.018087771153, No Iterations 3
DILUPBiCGStab:  Solving for Uz, Initial residual = 0.125884377485, Final residual = 0.00689788132557, No Iterations 3
linear solve U 1388370
[OGL LOG][Proc: 0]global_index_init : 1584 mu s
[OGL LOG][Proc: 0]global_index_init : 5 mu s
[OGL LOG][Proc: 0]global_index_init : 14 mu s
[OGL LOG][Proc: 0]global_index_init : 9 mu s
[OGL LOG][Proc: 0]update_host_matrix_data : 74202 mu s
[OGL LOG][Proc: 0]gather_global_matrix : 0 mu s
[OGL LOG][Proc: 0]init_precond : 47043680 mu s
[OGL LOG][Proc: 0]generate_solver : 4 mu s
[OGL LOG][Proc: 0]solve : 10852619 mu s
[OGL LOG][Proc: 0]retrieve_result_from_device : 261204 mu s
ISAIhipGKOBiCGStab:  Solving for p, Initial residual = 0.0369067999908, Final residual = 0.000364522442295, No Iterations 59
linear solve p 59740745
time step continuity errors : sum local = 0.104523286355, global = 0.000186225434245, cumulative = 0.000233644532695
DILUPBiCGStab:  Solving for omega, Initial residual = 0.00179965640752, Final residual = 4.58944791283e-05, No Iterations 1
linear solve omega 282126
bounding omega, min: -219.152634193 max: 2809572.43401 average: 2823.10180449
DILUPBiCGStab:  Solving for k, Initial residual = 0.0314728294792, Final residual = 0.00133713494835, No Iterations 1
linear solve k 244360
ExecutionTime = 170.24 s  ClockTime = 170 s

Time = 3

DILUPBiCGStab:  Solving for Ux, Initial residual = 0.0828898234535, Final residual = 0.00793068248536, No Iterations 7
DILUPBiCGStab:  Solving for Uy, Initial residual = 0.50200635439, Final residual = 0.0387574637215, No Iterations 8
DILUPBiCGStab:  Solving for Uz, Initial residual = 0.47210429258, Final residual = 0.040869459968, No Iterations 7
linear solve U 3225053
[OGL LOG][Proc: 0]global_index_init : 1344 mu s
[OGL LOG][Proc: 0]global_index_init : 6 mu s
[OGL LOG][Proc: 0]global_index_init : 8 mu s
[OGL LOG][Proc: 0]global_index_init : 14 mu s
[OGL LOG][Proc: 0]update_host_matrix_data : 71123 mu s
[OGL LOG][Proc: 0]gather_global_matrix : 0 mu s
[OGL LOG][Proc: 0]init_precond : 46558313 mu s
[OGL LOG][Proc: 0]generate_solver : 2 mu s
[OGL LOG][Proc: 0]solve : 6906382 mu s
[OGL LOG][Proc: 0]retrieve_result_from_device : 119585 mu s
ISAIhipGKOBiCGStab:  Solving for p, Initial residual = 0.960283085835, Final residual = 0.00882760809262, No Iterations 28
linear solve p 54934700
time step continuity errors : sum local = 4299.61794748, global = 0.000225550676685, cumulative = 0.00045919520938
DILUPBiCGStab:  Solving for omega, Initial residual = 0.085352937207, Final residual = 0.000369971624941, No Iterations 1
linear solve omega 232327
DILUPBiCGStab:  Solving for k, Initial residual = 0.134469446427, Final residual = 0.000302906265921, No Iterations 1
linear solve k 244539
ExecutionTime = 232.92 s  ClockTime = 233 s

End

Finalising parallel run
================================================================================
hash: 99b2e2ec6e2f3e89b28be26535a57c8c
/*---------------------------------------------------------------------------*\
| =========                 |                                                 |
| \\      /  F ield         | OpenFOAM: The Open Source CFD Toolbox           |
|  \\    /   O peration     | Version:  v2106                                 |
[...]

Selecting incompressible transport model Newtonian
Selecting turbulence model type RAS
Selecting RAS turbulence model kOmegaSST
Selecting patchDistMethod meshWave
RAS
{
    RASModel        kOmegaSST;
    turbulence      on;
    printCoeffs     on;
    alphaK1         0.85;
    alphaK2         1;
    alphaOmega1     0.5;
    alphaOmega2     0.856;
    gamma1          0.555555555556;
    gamma2          0.44;
    beta1           0.075;
    beta2           0.0828;
    betaStar        0.09;
    a1              0.31;
    b1              1;
    c1              10;
    F3              false;
    decayControl    false;
    kInf            0;
    omegaInf        0;
}

No MRF models present

No finite volume options present

Starting time loop

Time = 1

DILUPBiCGStab:  Solving for Ux, Initial residual = 0.0298408185319, Final residual = 0.0023442936585, No Iterations 3
DILUPBiCGStab:  Solving for Uy, Initial residual = 0.416436010106, Final residual = 0.0343159774748, No Iterations 3
DILUPBiCGStab:  Solving for Uz, Initial residual = 0.262309071038, Final residual = 0.0121250711235, No Iterations 3
linear solve U 1619043
[OGL LOG][Proc: 0]global_index_init : 10047 mu s
[OGL LOG][Proc: 0]global_index_init : 6 mu s
[OGL LOG][Proc: 0]global_index_init : 6 mu s
[OGL LOG][Proc: 0]global_index_init : 7 mu s
[OGL LOG][Proc: 0]init_host_sparsity_pattern : 5974395 mu s
[OGL LOG][Proc: 0]update_host_matrix_data : 46011 mu s
[OGL LOG][Proc: 0]convert_coo_to_csr : 87174 mu s
[OGL LOG][Proc: 0]gather_global_matrix : 0 mu s
[OGL LOG][Proc: 0]init_precond : 34419420 mu s
[OGL LOG][Proc: 0]generate_solver : 19 mu s
[OGL LOG][Proc: 0]solve : 16388295 mu s
[OGL LOG][Proc: 0]retrieve_result_from_device : 363290 mu s
ISAIhipGKOCG:  Solving for p, Initial residual = 1, Final residual = 0.00992068857011, No Iterations 212
linear solve p 75057506
time step continuity errors : sum local = 0.000816011629395, global = 2.97713406178e-05, cumulative = 2.97713406178e-05
DILUPBiCGStab:  Solving for omega, Initial residual = 0.00231524955995, Final residual = 5.70077857038e-05, No Iterations 1
linear solve omega 281096
bounding omega, min: -63898.4603497 max: 2809464.71271 average: 2480.11146039
DILUPBiCGStab:  Solving for k, Initial residual = 0.999999999282, Final residual = 0.0479472659579, No Iterations 1
linear solve k 236136
ExecutionTime = 97.73 s  ClockTime = 97 s

Time = 2

DILUPBiCGStab:  Solving for Ux, Initial residual = 0.0152111366574, Final residual = 0.00107272557046, No Iterations 3
DILUPBiCGStab:  Solving for Uy, Initial residual = 0.262220301078, Final residual = 0.0184902179199, No Iterations 3
DILUPBiCGStab:  Solving for Uz, Initial residual = 0.129642514835, Final residual = 0.00711916485388, No Iterations 3
linear solve U 1379008
[OGL LOG][Proc: 0]global_index_init : 1265 mu s
[OGL LOG][Proc: 0]global_index_init : 6 mu s
[OGL LOG][Proc: 0]global_index_init : 12 mu s
[OGL LOG][Proc: 0]global_index_init : 10 mu s
[OGL LOG][Proc: 0]update_host_matrix_data : 76463 mu s
[OGL LOG][Proc: 0]gather_global_matrix : 0 mu s
[OGL LOG][Proc: 0]init_precond : 31689387 mu s
[OGL LOG][Proc: 0]generate_solver : 2 mu s
[OGL LOG][Proc: 0]solve : 15246634 mu s
[OGL LOG][Proc: 0]retrieve_result_from_device : 73736 mu s
ISAIhipGKOCG:  Solving for p, Initial residual = 0.0350125149939, Final residual = 0.000262488348881, No Iterations 185
linear solve p 48379347
time step continuity errors : sum local = 0.103663611093, global = -5.68968258144e-05, cumulative = -2.71254851965e-05
DILUPBiCGStab:  Solving for omega, Initial residual = 0.00177443659508, Final residual = 4.54246451163e-05, No Iterations 1
linear solve omega 268989
bounding omega, min: -218.269260947 max: 2809572.22493 average: 2822.76787807
DILUPBiCGStab:  Solving for k, Initial residual = 0.0314876885844, Final residual = 0.00134049859411, No Iterations 1
linear solve k 243645
ExecutionTime = 152.21 s  ClockTime = 152 s

Time = 3

DILUPBiCGStab:  Solving for Ux, Initial residual = 0.075521248184, Final residual = 0.00668897844793, No Iterations 7
DILUPBiCGStab:  Solving for Uy, Initial residual = 0.496998508931, Final residual = 0.0436164497398, No Iterations 7
DILUPBiCGStab:  Solving for Uz, Initial residual = 0.468078402022, Final residual = 0.0339355542309, No Iterations 7
linear solve U 3152459
[OGL LOG][Proc: 0]global_index_init : 1491 mu s
[OGL LOG][Proc: 0]global_index_init : 7 mu s
[OGL LOG][Proc: 0]global_index_init : 6 mu s
[OGL LOG][Proc: 0]global_index_init : 10 mu s
[OGL LOG][Proc: 0]update_host_matrix_data : 71706 mu s
[OGL LOG][Proc: 0]gather_global_matrix : 0 mu s
[OGL LOG][Proc: 0]init_precond : 30300328 mu s
[OGL LOG][Proc: 0]generate_solver : 1 mu s
[OGL LOG][Proc: 0]solve : 12396900 mu s
[OGL LOG][Proc: 0]retrieve_result_from_device : 344740 mu s
ISAIhipGKOCG:  Solving for p, Initial residual = 0.962702854205, Final residual = 0.00281705626205, No Iterations 155
linear solve p 44413436
time step continuity errors : sum local = 4281.86581328, global = -0.0138286045637, cumulative = -0.0138557300489
DILUPBiCGStab:  Solving for omega, Initial residual = 0.0850535677891, Final residual = 0.000359744698515, No Iterations 1
linear solve omega 217522
DILUPBiCGStab:  Solving for k, Initial residual = 0.133684693679, Final residual = 0.000293384457615, No Iterations 1
linear solve k 245056
ExecutionTime = 204.39 s  ClockTime = 204 s

End

Finalising parallel run
================================================================================
hash: 93231ede7f39f60bbe1ba3bef7665e64
/*---------------------------------------------------------------------------*\
| =========                 |                                                 |
| \\      /  F ield         | OpenFOAM: The Open Source CFD Toolbox           |
|  \\    /   O peration     | Version:  v2106                                 |
|   \\  /    A nd           | Website:  www.openfoam.com                      |
|    \\/     M anipulation  |                                                 |
\*---------------------------------------------------------------------------*/
Build  : f815a12bba-20210902 OPENFOAM=2106
Arch   : "LSB;label=32;scalar=64"
Exec   : simpleFoam -parallel
Date   : Jan 20 2022
Time   : 16:29:09
Host   : nla-gpu2.ianm.kit.edu
PID    : 1885183
I/O    : uncollated
Case   : /home/greole/data/code/ogl_labbook/motorcycle_solver/solver/Variation_mesh/Large/Variation_matrix_solver/CG_ISAI_HIP/Variation_mpiRank/4/base
nProcs : 4
Hosts  :
(
    (nla-gpu2.ianm.kit.edu 4)
)
Pstream initialized with:
    floatTransfer      : 0
    nProcsSimpleSum    : 0
    commsType          : nonBlocking
    polling iterations : 0
trapFpe: Floating point exception trapping enabled (FOAM_SIGFPE).
fileModificationChecking : Monitoring run-time modified files using timeStampMaster (fileModificationSkew 5, maxFileModificationPolls 20)
allowSystemOperations : Allowing user-supplied system call operations

// * * * * * * * * * * * * * * * * * * * * * * * * * * * * * * * * * * * * * //
Create time

Create mesh for time = 0


SIMPLE: no convergence criteria found. Calculations will run for 3 steps.

Reading field p

Reading field U

Reading/calculating face flux field phi

Selecting incompressible transport model Newtonian
Selecting turbulence model type RAS
Selecting RAS turbulence model kOmegaSST
Selecting patchDistMethod meshWave
RAS
{
    RASModel        kOmegaSST;
    turbulence      on;
    printCoeffs     on;
    alphaK1         0.85;
    alphaK2         1;
    alphaOmega1     0.5;
    alphaOmega2     0.856;
    gamma1          0.555555555556;
    gamma2          0.44;
    beta1           0.075;
    beta2           0.0828;
    betaStar        0.09;
    a1              0.31;
    b1              1;
    c1              10;
    F3              false;
    decayControl    false;
    kInf            0;
    omegaInf        0;
}

No MRF models present

No finite volume options present

Starting time loop

Time = 1

DILUPBiCGStab:  Solving for Ux, Initial residual = 0.0298408184804, Final residual = 0.000860482801151, No Iterations 4
DILUPBiCGStab:  Solving for Uy, Initial residual = 0.416436009193, Final residual = 0.0300438011241, No Iterations 3
DILUPBiCGStab:  Solving for Uz, Initial residual = 0.262309070455, Final residual = 0.010828825442, No Iterations 3
linear solve U 6646284
[OGL LOG][Proc: 0]global_index_init : 257 mu s
[OGL LOG][Proc: 0]global_index_init : 3 mu s
[OGL LOG][Proc: 0]global_index_init : 1 mu s
[OGL LOG][Proc: 0]global_index_init : 2 mu s
[OGL LOG][Proc: 0]init_host_sparsity_pattern : 17748323 mu s
[OGL LOG][Proc: 0]update_host_matrix_data : 254551 mu s
[OGL LOG][Proc: 0]convert_coo_to_csr : 13008 mu s
[OGL LOG][Proc: 0]gather_global_matrix : 1 mu s
[OGL LOG][Proc: 0]init_precond : 6341848 mu s
[OGL LOG][Proc: 0]generate_solver : 13 mu s
[OGL LOG][Proc: 0]solve : 3268478 mu s
[OGL LOG][Proc: 0]retrieve_result_from_device : 76078 mu s
ISAIhipGKOCG:  Solving for p, Initial residual = 1, Final residual = 0.00993961172728, No Iterations 215
linear solve p 34381296
time step continuity errors : sum local = 0.000817857846519, global = 3.57817798394e-05, cumulative = 3.57817798394e-05
DILUPBiCGStab:  Solving for omega, Initial residual = 0.00231308346456, Final residual = 5.52172296784e-05, No Iterations 1
linear solve omega 929043
bounding omega, min: -64430.2100724 max: 2809464.71271 average: 2480.63197625
DILUPBiCGStab:  Solving for k, Initial residual = 0.999999998225, Final residual = 0.0409515496107, No Iterations 1
linear solve k 920346
ExecutionTime = 158.65 s  ClockTime = 158 s

Time = 2

DILUPBiCGStab:  Solving for Ux, Initial residual = 0.0152803989058, Final residual = 0.000979749615387, No Iterations 3
DILUPBiCGStab:  Solving for Uy, Initial residual = 0.263993182154, Final residual = 0.016127100193, No Iterations 3
DILUPBiCGStab:  Solving for Uz, Initial residual = 0.131331843918, Final residual = 0.006670645581, No Iterations 3
linear solve U 5387203
[OGL LOG][Proc: 0]global_index_init : 151 mu s
[OGL LOG][Proc: 0]global_index_init : 3 mu s
[OGL LOG][Proc: 0]global_index_init : 2 mu s
[OGL LOG][Proc: 0]global_index_init : 3 mu s
[OGL LOG][Proc: 0]update_host_matrix_data : 219079 mu s
[OGL LOG][Proc: 0]gather_global_matrix : 1 mu s
[OGL LOG][Proc: 0]init_precond : 6335446 mu s
[OGL LOG][Proc: 0]generate_solver : 1 mu s
[OGL LOG][Proc: 0]solve : 2685498 mu s
[OGL LOG][Proc: 0]retrieve_result_from_device : 77363 mu s
ISAIhipGKOCG:  Solving for p, Initial residual = 0.0327398437357, Final residual = 0.000276856979402, No Iterations 185
linear solve p 14318718
time step continuity errors : sum local = 0.0798713104167, global = -4.78173250189e-05, cumulative = -1.20355451794e-05
DILUPBiCGStab:  Solving for omega, Initial residual = 0.00162338874741, Final residual = 4.49017479727e-05, No Iterations 1
linear solve omega 918089
bounding omega, min: -211.110286273 max: 2809505.57555 average: 2815.90497738
DILUPBiCGStab:  Solving for k, Initial residual = 0.0301089921386, Final residual = 0.00114317191079, No Iterations 1
linear solve k 921998
ExecutionTime = 196.73 s  ClockTime = 196 s

Time = 3

DILUPBiCGStab:  Solving for Ux, Initial residual = 0.0558143404059, Final residual = 0.0044211003605, No Iterations 7
DILUPBiCGStab:  Solving for Uy, Initial residual = 0.465539568593, Final residual = 0.0284471723346, No Iterations 7
DILUPBiCGStab:  Solving for Uz, Initial residual = 0.440445259017, Final residual = 0.0439296177617, No Iterations 6
linear solve U 12330321
[OGL LOG][Proc: 0]global_index_init : 561 mu s
[OGL LOG][Proc: 0]global_index_init : 3 mu s
[OGL LOG][Proc: 0]global_index_init : 2 mu s
[OGL LOG][Proc: 0]global_index_init : 3 mu s
[OGL LOG][Proc: 0]update_host_matrix_data : 218668 mu s
[OGL LOG][Proc: 0]gather_global_matrix : 1 mu s
[OGL LOG][Proc: 0]init_precond : 6342155 mu s
[OGL LOG][Proc: 0]generate_solver : 1 mu s
[OGL LOG][Proc: 0]solve : 2252731 mu s
[OGL LOG][Proc: 0]retrieve_result_from_device : 80992 mu s
ISAIhipGKOCG:  Solving for p, Initial residual = 0.944136185903, Final residual = 0.00259520946759, No Iterations 155
linear solve p 13899537
time step continuity errors : sum local = 2959.00286773, global = -0.00660874781316, cumulative = -0.00662078335834
DILUPBiCGStab:  Solving for omega, Initial residual = 0.0822670237904, Final residual = 0.000348624426508, No Iterations 1
linear solve omega 640434
bounding omega, min: -901.972663093 max: 2808961.96062 average: 3269.98391247
DILUPBiCGStab:  Solving for k, Initial residual = 0.132633014458, Final residual = 0.000318037601857, No Iterations 1
linear solve k 917259
ExecutionTime = 241.16 s  ClockTime = 240 s

End

Finalising parallel run
================================================================================
hash: cb1baeea9ec406a847c5747a5ec0f15c
/*---------------------------------------------------------------------------*\
| =========                 |                                                 |
| \\      /  F ield         | OpenFOAM: The Open Source CFD Toolbox           |
|  \\    /   O peration     | Version:  v2106                                 |
|   \\  /    A nd           | Website:  www.openfoam.com                      |
|    \\/     M anipulation  |                                                 |
\*---------------------------------------------------------------------------*/
Build  : f815a12bba-20210902 OPENFOAM=2106
Arch   : "LSB;label=32;scalar=64"
Exec   : simpleFoam -parallel
Date   : Jan 20 2022
Time   : 16:33:12
Host   : nla-gpu2.ianm.kit.edu
PID    : 1887411
I/O    : uncollated
Case   : /home/greole/data/code/ogl_labbook/motorcycle_solver/solver/Variation_mesh/Large/Variation_matrix_solver/CG_ISAI_HIP/Variation_mpiRank/8/base
nProcs : 8
Hosts  :
(
    (nla-gpu2.ianm.kit.edu 8)
)
Pstream initialized with:
    floatTransfer      : 0
    nProcsSimpleSum    : 0
    commsType          : nonBlocking
    polling iterations : 0
trapFpe: Floating point exception trapping enabled (FOAM_SIGFPE).
fileModificationChecking : Monitoring run-time modified files using timeStampMaster (fileModificationSkew 5, maxFileModificationPolls 20)
allowSystemOperations : Allowing user-supplied system call operations

// * * * * * * * * * * * * * * * * * * * * * * * * * * * * * * * * * * * * * //
Create time

Create mesh for time = 0


SIMPLE: no convergence criteria found. Calculations will run for 3 steps.

Reading field p

Reading field U

Reading/calculating face flux field phi

Selecting incompressible transport model Newtonian
Selecting turbulence model type RAS
Selecting RAS turbulence model kOmegaSST
Selecting patchDistMethod meshWave
RAS
{
    RASModel        kOmegaSST;
    turbulence      on;
    printCoeffs     on;
    alphaK1         0.85;
    alphaK2         1;
    alphaOmega1     0.5;
    alphaOmega2     0.856;
    gamma1          0.555555555556;
    gamma2          0.44;
    beta1           0.075;
    beta2           0.0828;
    betaStar        0.09;
    a1              0.31;
    b1              1;
    c1              10;
    F3              false;
    decayControl    false;
    kInf            0;
    omegaInf        0;
}

No MRF models present

No finite volume options present

Starting time loop

Time = 1

DILUPBiCGStab:  Solving for Ux, Initial residual = 0.0298408184793, Final residual = 0.00218216071274, No Iterations 3
DILUPBiCGStab:  Solving for Uy, Initial residual = 0.416436009197, Final residual = 0.0316946277838, No Iterations 3
DILUPBiCGStab:  Solving for Uz, Initial residual = 0.262309070484, Final residual = 0.0117523460212, No Iterations 3
linear solve U 3305314
[OGL LOG][Proc: 0]global_index_init : 40472 mu s
[OGL LOG][Proc: 0]global_index_init : 5 mu s
[OGL LOG][Proc: 0]global_index_init : 4 mu s
[OGL LOG][Proc: 0]global_index_init : 4 mu s
[OGL LOG][Proc: 0]init_host_sparsity_pattern : 47753147 mu s
[OGL LOG][Proc: 0]update_host_matrix_data : 127861 mu s
[OGL LOG][Proc: 0]convert_coo_to_csr : 12483 mu s
[OGL LOG][Proc: 0]gather_global_matrix : 1 mu s
[OGL LOG][Proc: 0]init_precond : 6334571 mu s
[OGL LOG][Proc: 0]generate_solver : 12 mu s
[OGL LOG][Proc: 0]solve : 3241208 mu s
[OGL LOG][Proc: 0]retrieve_result_from_device : 65132 mu s
ISAIhipGKOCG:  Solving for p, Initial residual = 1, Final residual = 0.00994432255194, No Iterations 214
linear solve p 68766555
time step continuity errors : sum local = 0.000812897807671, global = 3.09124299364e-05, cumulative = 3.09124299364e-05
DILUPBiCGStab:  Solving for omega, Initial residual = 0.00231437118779, Final residual = 5.56821619189e-05, No Iterations 1
linear solve omega 544880
bounding omega, min: -64010.2382403 max: 2809464.71271 average: 2480.42452989
DILUPBiCGStab:  Solving for k, Initial residual = 0.999999998376, Final residual = 0.0429123514107, No Iterations 1
linear solve k 487620
ExecutionTime = 134.59 s  ClockTime = 134 s

Time = 2

DILUPBiCGStab:  Solving for Ux, Initial residual = 0.0152105037219, Final residual = 0.00100587651154, No Iterations 3
DILUPBiCGStab:  Solving for Uy, Initial residual = 0.261433794902, Final residual = 0.0184774830201, No Iterations 3
DILUPBiCGStab:  Solving for Uz, Initial residual = 0.129980160016, Final residual = 0.00669042678274, No Iterations 3
linear solve U 2775938
[OGL LOG][Proc: 0]global_index_init : 1476 mu s
[OGL LOG][Proc: 0]global_index_init : 4 mu s
[OGL LOG][Proc: 0]global_index_init : 5 mu s
[OGL LOG][Proc: 0]global_index_init : 4 mu s
[OGL LOG][Proc: 0]update_host_matrix_data : 111253 mu s
[OGL LOG][Proc: 0]gather_global_matrix : 1 mu s
[OGL LOG][Proc: 0]init_precond : 6332826 mu s
[OGL LOG][Proc: 0]generate_solver : 1 mu s
[OGL LOG][Proc: 0]solve : 2677697 mu s
[OGL LOG][Proc: 0]retrieve_result_from_device : 79976 mu s
ISAIhipGKOCG:  Solving for p, Initial residual = 0.0345252460623, Final residual = 0.000274069068298, No Iterations 185
linear solve p 12076169
time step continuity errors : sum local = 0.094045480099, global = -4.55262505733e-05, cumulative = -1.46138206369e-05
DILUPBiCGStab:  Solving for omega, Initial residual = 0.00171526042255, Final residual = 4.49684776871e-05, No Iterations 1
linear solve omega 544420
bounding omega, min: -209.191690329 max: 2809558.67627 average: 2820.95942631
DILUPBiCGStab:  Solving for k, Initial residual = 0.0309559435742, Final residual = 0.00117618387637, No Iterations 1
linear solve k 487281
ExecutionTime = 159.08 s  ClockTime = 158 s

Time = 3

DILUPBiCGStab:  Solving for Ux, Initial residual = 0.07541073903, Final residual = 0.00698426740422, No Iterations 7
DILUPBiCGStab:  Solving for Uy, Initial residual = 0.5024284585, Final residual = 0.042973359456, No Iterations 7
DILUPBiCGStab:  Solving for Uz, Initial residual = 0.45929694062, Final residual = 0.0337926157871, No Iterations 7
linear solve U 6471017
[OGL LOG][Proc: 0]global_index_init : 1731 mu s
[OGL LOG][Proc: 0]global_index_init : 3 mu s
[OGL LOG][Proc: 0]global_index_init : 6 mu s
[OGL LOG][Proc: 0]global_index_init : 3 mu s
[OGL LOG][Proc: 0]update_host_matrix_data : 110883 mu s
[OGL LOG][Proc: 0]gather_global_matrix : 1 mu s
[OGL LOG][Proc: 0]init_precond : 6336002 mu s
[OGL LOG][Proc: 0]generate_solver : 1 mu s
[OGL LOG][Proc: 0]solve : 2246871 mu s
[OGL LOG][Proc: 0]retrieve_result_from_device : 74595 mu s
ISAIhipGKOCG:  Solving for p, Initial residual = 0.963566583609, Final residual = 0.00263222704192, No Iterations 155
linear solve p 11662244
time step continuity errors : sum local = 4023.40297915, global = -0.0161866682096, cumulative = -0.0162012820303
DILUPBiCGStab:  Solving for omega, Initial residual = 0.0994667873908, Final residual = 0.000408093262594, No Iterations 1
linear solve omega 400521
bounding omega, min: -868.586191521 max: 2809009.17243 average: 3322.30333083
DILUPBiCGStab:  Solving for k, Initial residual = 0.130445363068, Final residual = 0.00023604854734, No Iterations 1
linear solve k 490620
ExecutionTime = 186.78 s  ClockTime = 186 s

End

Finalising parallel run
================================================================================
