hash: a7ea054e5bee9b2594416cc22a4c43bf
/*---------------------------------------------------------------------------*\
| =========                 |                                                 |
| \\      /  F ield         | OpenFOAM: The Open Source CFD Toolbox           |
|  \\    /   O peration     | Version:  2112                                  |
|   \\  /    A nd           | Website:  www.openfoam.com                      |
|    \\/     M anipulation  |                                                 |
\*---------------------------------------------------------------------------*/
Build  : d44c8318f0-20220111 OPENFOAM=2112 version=v2112
Arch   : "LSB;label=32;scalar=64"
Exec   : icoFoam -parallel
Date   : May 17 2022
Time   : 07:39:02
Host   : hkn0804.localdomain
PID    : 523601
I/O    : uncollated
Case   : /hkfs/home/project/hk-project-test-fine/eq4036/data/code/ogl_labbook/lidDrivenCavity/scaling/Variation_mesh/500/Variation_matrix_solver/CG_NoPrecond_CUDA/Variation_mpiRank_gko/2/base
nProcs : 2
Hosts  :
(
    (hkn0804.localdomain 2)
)
Pstream initialized with:
    floatTransfer      : 0
    nProcsSimpleSum    : 0
    commsType          : nonBlocking
    polling iterations : 0
trapFpe: Floating point exception trapping enabled (FOAM_SIGFPE).
fileModificationChecking : Monitoring run-time modified files using timeStampMaster (fileModificationSkew 5, maxFileModificationPolls 20)
allowSystemOperations : Allowing user-supplied system call operations

// * * * * * * * * * * * * * * * * * * * * * * * * * * * * * * * * * * * * * //
Create time

Create mesh for time = 0


PISO: Operating solver in PISO mode

Reading transportProperties

Reading field p

Reading field U

Reading/calculating face flux field phi


Starting time loop

Time = 2e-05

Courant Number mean: 0 max: 0
[OF LOG] u assembly : 11531225 mu s
[OF LOG] u assembly : 11638968 mu s
DILUPBiCGStab:  Solving for Ux, Initial residual = 1, Final residual = 0.00183231, No Iterations 5
DILUPBiCGStab:  Solving for Uy:  solution singularity
DILUPBiCGStab:  Solving for Uz:  solution singularity
linear solve U 41220547
[OF LOG] u solve : 45858954 mu s
[OF LOG] u solve : 45751551 mu s
[OF LOG] phiHbyA assembly : 7170588 mu s
[OF LOG] phiHbyA assembly : 7272504 mu s
[OF LOG] p assembly : 3601890 mu s
[OF LOG] p assembly : 3626739 mu s
[OGL LOG][Proc: 0]global_index_init : 25 mu s
[OGL LOG][Proc: 0]global_index_init : 1 mu s
================================================================================
hash: 33fa9064512ffd401fe5294e7d582b5c
/*---------------------------------------------------------------------------*\
| =========                 |                                                 |
| \\      /  F ield         | OpenFOAM: The Open Source CFD Toolbox           |
|  \\    /   O peration     | Version:  2112                                  |
|   \\  /    A nd           | Website:  www.openfoam.com                      |
|    \\/     M anipulation  |                                                 |
\*---------------------------------------------------------------------------*/
Build  : d44c8318f0-20220111 OPENFOAM=2112 version=v2112
Arch   : "LSB;label=32;scalar=64"
Exec   : icoFoam -parallel
Date   : May 17 2022
Time   : 07:39:03
Host   : hkn0806.localdomain
PID    : 1315985
I/O    : uncollated
Case   : /hkfs/home/project/hk-project-test-fine/eq4036/data/code/ogl_labbook/lidDrivenCavity/scaling/Variation_mesh/500/Variation_matrix_solver/CG_NoPrecond_CUDA/Variation_mpiRank_gko/4/base
nProcs : 4
Hosts  :
(
    (hkn0806.localdomain 4)
)
Pstream initialized with:
    floatTransfer      : 0
    nProcsSimpleSum    : 0
    commsType          : nonBlocking
    polling iterations : 0
trapFpe: Floating point exception trapping enabled (FOAM_SIGFPE).
fileModificationChecking : Monitoring run-time modified files using timeStampMaster (fileModificationSkew 5, maxFileModificationPolls 20)
allowSystemOperations : Allowing user-supplied system call operations

// * * * * * * * * * * * * * * * * * * * * * * * * * * * * * * * * * * * * * //
Create time

Create mesh for time = 0


PISO: Operating solver in PISO mode

Reading transportProperties

Reading field p

Reading field U

Reading/calculating face flux field phi


Starting time loop

Time = 2e-05

Courant Number mean: 0 max: 0
[OF LOG] u assembly : 6115460 mu s
[OF LOG] u assembly : 6139250 mu s
[OF LOG] u assembly : 6181852 mu s
[OF LOG] u assembly : 6290178 mu s
DILUPBiCGStab:  Solving for Ux, Initial residual = 1, Final residual = 0.00248729, No Iterations 5
DILUPBiCGStab:  Solving for Uy:  solution singularity
DILUPBiCGStab:  Solving for Uz:  solution singularity
linear solve U 22098479
[OF LOG] u solve : 24704098 mu s
[OF LOG] u solve : 24680716 mu s
[OF LOG] u solve : 24638817 mu s
[OF LOG] u solve : 24530659 mu s
[OF LOG] phiHbyA assembly : 3810920 mu s
[OF LOG] phiHbyA assembly : 3834304 mu s
[OF LOG] phiHbyA assembly : 3862449 mu s
[OF LOG] phiHbyA assembly : 3923319 mu s
[OF LOG] p assembly : 1913135 mu s
[OF LOG] p assembly : 1918584 mu s
[OF LOG] p assembly : 1933834 mu s
[OF LOG] p assembly : 1954107 mu s
[OGL LOG][Proc: 0]global_index_init : 2050 mu s
[OGL LOG][Proc: 0]global_index_init : 1 mu s
================================================================================
hash: d2456a528f4e6eff56b4b189a0c467d0
[1652765943.270305] [hkn0807:1344637:0]           ib_md.c:1234 UCX  WARN  IB: ibv_fork_init() was disabled or failed, yet a fork() has been issued.
[1652765943.270317] [hkn0807:1344637:0]           ib_md.c:1235 UCX  WARN  IB: data corruption might occur when using registered memory.
[1652765943.298721] [hkn0807:1344637:0]           ib_md.c:1234 UCX  WARN  IB: ibv_fork_init() was disabled or failed, yet a fork() has been issued.
[1652765943.298730] [hkn0807:1344637:0]           ib_md.c:1235 UCX  WARN  IB: data corruption might occur when using registered memory.
[1652765943.322971] [hkn0807:1344637:0]           ib_md.c:1234 UCX  WARN  IB: ibv_fork_init() was disabled or failed, yet a fork() has been issued.
[1652765943.322979] [hkn0807:1344637:0]           ib_md.c:1235 UCX  WARN  IB: data corruption might occur when using registered memory.
[1652765943.342695] [hkn0807:1344637:0]           ib_md.c:1234 UCX  WARN  IB: ibv_fork_init() was disabled or failed, yet a fork() has been issued.
[1652765943.342703] [hkn0807:1344637:0]           ib_md.c:1235 UCX  WARN  IB: data corruption might occur when using registered memory.
[1652765943.366530] [hkn0807:1344637:0]           ib_md.c:1234 UCX  WARN  IB: ibv_fork_init() was disabled or failed, yet a fork() has been issued.
[1652765943.366537] [hkn0807:1344637:0]           ib_md.c:1235 UCX  WARN  IB: data corruption might occur when using registered memory.
[1652765943.385364] [hkn0807:1344637:0]           ib_md.c:1234 UCX  WARN  IB: ibv_fork_init() was disabled or failed, yet a fork() has been issued.
[1652765943.385372] [hkn0807:1344637:0]           ib_md.c:1235 UCX  WARN  IB: data corruption might occur when using registered memory.
[1652765943.404887] [hkn0807:1344637:0]           ib_md.c:1234 UCX  WARN  IB: ibv_fork_init() was disabled or failed, yet a fork() has been issued.
[1652765943.404895] [hkn0807:1344637:0]           ib_md.c:1235 UCX  WARN  IB: data corruption might occur when using registered memory.
[1652765943.427860] [hkn0807:1344637:0]           ib_md.c:1234 UCX  WARN  IB: ibv_fork_init() was disabled or failed, yet a fork() has been issued.
[1652765943.427868] [hkn0807:1344637:0]           ib_md.c:1235 UCX  WARN  IB: data corruption might occur when using registered memory.
[1652765943.446307] [hkn0807:1344637:0]           ib_md.c:1234 UCX  WARN  IB: ibv_fork_init() was disabled or failed, yet a fork() has been issued.
[1652765943.446315] [hkn0807:1344637:0]           ib_md.c:1235 UCX  WARN  IB: data corruption might occur when using registered memory.
================================================================================
hash: 39e14d0ecc3514c7a465c344debd2aac
/*---------------------------------------------------------------------------*\
| =========                 |                                                 |
| \\      /  F ield         | OpenFOAM: The Open Source CFD Toolbox           |
|  \\    /   O peration     | Version:  2112                                  |
|   \\  /    A nd           | Website:  www.openfoam.com                      |
|    \\/     M anipulation  |                                                 |
\*---------------------------------------------------------------------------*/
Build  : d44c8318f0-20220111 OPENFOAM=2112 version=v2112
Arch   : "LSB;label=32;scalar=64"
Exec   : icoFoam -parallel
Date   : May 17 2022
Time   : 07:39:04
Host   : hkn0808.localdomain
PID    : 2443592
I/O    : uncollated
Case   : /hkfs/home/project/hk-project-test-fine/eq4036/data/code/ogl_labbook/lidDrivenCavity/scaling/Variation_mesh/500/Variation_matrix_solver/CG_NoPrecond_CUDA/Variation_mpiRank_gko/16/base
nProcs : 16
Hosts  :
(
    (hkn0808.localdomain 4)
    (hkn0809.localdomain 4)
    (hkn0811.localdomain 4)
    (hkn0813.localdomain 4)
)
Pstream initialized with:
    floatTransfer      : 0
    nProcsSimpleSum    : 0
    commsType          : nonBlocking
    polling iterations : 0
trapFpe: Floating point exception trapping enabled (FOAM_SIGFPE).
fileModificationChecking : Monitoring run-time modified files using timeStampMaster (fileModificationSkew 5, maxFileModificationPolls 20)
allowSystemOperations : Allowing user-supplied system call operations

// * * * * * * * * * * * * * * * * * * * * * * * * * * * * * * * * * * * * * //
Create time

Create mesh for time = 0


PISO: Operating solver in PISO mode

Reading transportProperties

Reading field p

Reading field U

Reading/calculating face flux field phi


Starting time loop

Time = 2e-05

Courant Number mean: 0 max: 0
[OF LOG] u assembly : 1505463 mu s
[OF LOG] u assembly : 1509961 mu s
[OF LOG] u assembly : 1528921 mu s
[OF LOG] u assembly : 1530818 mu s
[OF LOG] u assembly : 1532804 mu s
[OF LOG] u assembly : 1542315 mu s
[OF LOG] u assembly : 1542622 mu s
[OF LOG] u assembly : 1546934 mu s
[OF LOG] u assembly : 1547504 mu s
[OF LOG] u assembly : 1549890 mu s
[OF LOG] u assembly : 1556270 mu s
[OF LOG] u assembly : 1557121 mu s
[OF LOG] u assembly : 1561199 mu s
[OF LOG] u assembly : 1568263 mu s
[OF LOG] u assembly : 1570182 mu s
[OF LOG] u assembly : 1575615 mu s
DILUPBiCGStab:  Solving for Ux, Initial residual = 1, Final residual = 0.0027948, No Iterations 5
DILUPBiCGStab:  Solving for Uy:  solution singularity
DILUPBiCGStab:  Solving for Uz:  solution singularity
[OF LOG] u solve : 6068081 mu s
linear solve U 5406867
[OF LOG] u solve : 6047448 mu s
[OF LOG] u solve : 6027411 mu s
[OF LOG] u solve : 6040570 mu s
[OF LOG] u solve : 6041539 mu s
[OF LOG] u solve : 6067265 mu s
[OF LOG] u solve : 6088068 mu s
[OF LOG] u solve : 6092843 mu s
[OF LOG] u solve : 6051303 mu s
[OF LOG] u solve : 6066281 mu s
[OF LOG] u solve : 6056809 mu s
[OF LOG] u solve : 6023800 mu s
[OF LOG] u solve : 6057109 mu s
[OF LOG] u solve : 6038283 mu s
[OF LOG] u solve : 6031287 mu s
[OF LOG] u solve : 6052759 mu s
[OF LOG] phiHbyA assembly : 932405 mu s
[OF LOG] phiHbyA assembly : 942716 mu s
[OF LOG] phiHbyA assembly : 941172 mu s
[OF LOG] phiHbyA assembly : 931745 mu s
[OF LOG] phiHbyA assembly : 946935 mu s
[OF LOG] phiHbyA assembly : 966168 mu s
[OF LOG] phiHbyA assembly : 966118 mu s
[OF LOG] phiHbyA assembly : 958775 mu s
[OF LOG] phiHbyA assembly : 968434 mu s
[OF LOG] phiHbyA assembly : 959732 mu s
[OF LOG] phiHbyA assembly : 959686 mu s
[OF LOG] phiHbyA assembly : 974394 mu s
[OF LOG] phiHbyA assembly : 965160 mu s
[OF LOG] phiHbyA assembly : 970551 mu s
[OF LOG] phiHbyA assembly : 973713 mu s
[OF LOG] phiHbyA assembly : 977853 mu s
[OF LOG] p assembly : 484938 mu s
[OF LOG] p assembly : 487529 mu s
[OF LOG] p assembly : 488697 mu s
[OF LOG] p assembly : 491581 mu s
[OF LOG] p assembly : 492061 mu s
[OF LOG] p assembly : 495324 mu s
[OF LOG] p assembly : 493073 mu s
[OF LOG] p assembly : 494179 mu s
[OF LOG] p assembly : 495920 mu s
[OF LOG] p assembly : 492862 mu s
[OF LOG] p assembly : 495573 mu s
[OF LOG] p assembly : 497161 mu s
[OF LOG] p assembly : 500156 mu s
[OF LOG] p assembly : 502025 mu s
[OF LOG] p assembly : 502436 mu s
[OF LOG] p assembly : 505071 mu s
[OGL LOG][Proc: 0]global_index_init : 20377 mu s
[OGL LOG][Proc: 0]global_index_init : 5 mu s
[OGL LOG][Proc: 0]init_host_sparsity_pattern : 1348942591 mu s
[OGL LOG][Proc: 0]update_host_matrix_data : 246087 mu s
[OGL LOG][Proc: 0]convert_coo_to_csr : 4013690 mu s
[OGL LOG][Proc: 0]gather_initGuess : 4 mu s
[OGL LOG][Proc: 0]gather_RHS : 0 mu s
[OGL LOG][Proc: 0]gather_global_matrix : 1 mu s
[OGL LOG][Proc: 0]init_precond : 159 mu s
[OGL LOG][Proc: 0]generate_solver : 33 mu s
[OGL LOG][Proc: 0]solve : 10715100 mu s
nonecudaGKOCG:  Solving for p, Initial residual = 1, Final residual = 9.88123e-05, No Iterations 3822
[OF LOG] p solve : 1550364168 mu s
[OF LOG] p solve : 1550364334 mu s
[OF LOG] p solve : 1550364880 mu s
[OF LOG] p solve : 1550365010 mu s
[OF LOG] p solve : 1550365214 mu s
[OF LOG] p solve : 1550365304 mu s
[OF LOG] p solve : 1550365365 mu s
linear solve p 1550365416
[OF LOG] p solve : 1550365489 mu s
[OF LOG] p solve : 1550365434 mu s
[OF LOG] p solve : 1550365560 mu s
[OF LOG] p solve : 1550365878 mu s
[OF LOG] p solve : 1550365955 mu s
[OF LOG] p solve : 1550366007 mu s
[OF LOG] p solve : 1550366048 mu s
[OF LOG] p solve : 1550366085 mu s
[OF LOG] p solve : 1550366265 mu s
time step continuity errors : sum local = 1.73577e-10, global = 1.3318e-22, cumulative = 1.3318e-22
[OF LOG] u correct : 383071 mu s
[OF LOG] u correct : 383651 mu s
[OF LOG] u correct : 384991 mu s
[OF LOG] u correct : 385461 mu s
[OF LOG] u correct : 386788 mu s
[OF LOG] u correct : 386564 mu s
[OF LOG] u correct : 387244 mu s
[OF LOG] u correct : 390356 mu s
[OF LOG] u correct : 390881 mu s
[OF LOG] u correct : 391899 mu s
[OF LOG] u correct : 392183 mu s
[OF LOG] u correct : 392357 mu s
[OF LOG] u correct : 392768 mu s
[OF LOG] u correct : 392805 mu s
[OF LOG] u correct : 393378 mu s
[OF LOG] u correct : 393303 mu s
[OF LOG] phiHbyA assembly : 841882 mu s
[OF LOG] phiHbyA assembly : 860845 mu s
[OF LOG] phiHbyA assembly : 867595 mu s
[OF LOG] phiHbyA assembly : 872146 mu s
[OF LOG] phiHbyA assembly : 884765 mu s
[OF LOG] phiHbyA assembly : 835945 mu s
[OF LOG] phiHbyA assembly : 845109 mu s
[OF LOG] phiHbyA assembly : 849498 mu s
[OF LOG] phiHbyA assembly : 847152 mu s
[OF LOG] phiHbyA assembly : 852256 mu s
[OF LOG] phiHbyA assembly : 855774 mu s
[OF LOG] phiHbyA assembly : 862927 mu s
[OF LOG] phiHbyA assembly : 863715 mu s
[OF LOG] phiHbyA assembly : 869178 mu s
[OF LOG] phiHbyA assembly : 868335 mu s
[OF LOG] phiHbyA assembly : 875079 mu s
[OF LOG] p assembly : 482963 mu s
[OF LOG] p assembly : 488977 mu s
[OF LOG] p assembly : 489350 mu s
[OF LOG] p assembly : 489557 mu s
[OF LOG] p assembly : 489792 mu s
[OF LOG] p assembly : 491658 mu s
[OF LOG] p assembly : 491793 mu s
[OF LOG] p assembly : 491937 mu s
[OF LOG] p assembly : 492522 mu s
[OF LOG] p assembly : 496545 mu s
[OF LOG] p assembly : 496748 mu s
[OF LOG] p assembly : 498895 mu s
[OF LOG] p assembly : 499752 mu s
[OF LOG] p assembly : 502620 mu s
[OF LOG] p assembly : 503857 mu s
[OF LOG] p assembly : 506637 mu s
[OGL LOG][Proc: 0]global_index_init : 14 mu s
[OGL LOG][Proc: 0]global_index_init : 2 mu s
[OGL LOG][Proc: 0]update_host_matrix_data : 217439 mu s
[OGL LOG][Proc: 0]gather_initGuess : 1 mu s
[OGL LOG][Proc: 0]gather_RHS : 0 mu s
[OGL LOG][Proc: 0]gather_global_matrix : 0 mu s
[OGL LOG][Proc: 0]init_precond : 34 mu s
[OGL LOG][Proc: 0]generate_solver : 0 mu s
[OGL LOG][Proc: 0]solve : 9567433 mu s
nonecudaGKOCG:  Solving for p, Initial residual = 1, Final residual = 3.37878e-05, No Iterations 3497
[OF LOG] p solve : 14757127 mu s
[OF LOG] p solve : 14757223 mu s
[OF LOG] p solve : 14757290 mu s
[OF LOG] p solve : 14757449 mu s
[OF LOG] p solve : 14757462 mu s
[OF LOG] p solve : 14757602 mu s
[OF LOG] p solve : 14757555 mu s
[OF LOG] p solve : 14757594 mu s
[OF LOG] p solve : 14757845 mu s
[OF LOG] p solve : 14757866 mu s
linear solve p 14757933
[OF LOG] p solve : 14758016 mu s
[OF LOG] p solve : 14758002 mu s
[OF LOG] p solve : 14758044 mu s
[OF LOG] p solve : 14758610 mu s
[OF LOG] p solve : 14758642 mu s
[OF LOG] p solve : 14758941 mu s
time step continuity errors : sum local = 1.89085e-11, global = -1.39636e-23, cumulative = 1.19216e-22
[OF LOG] u correct : 349257 mu s
[OF LOG] u correct : 350188 mu s
[OF LOG] u correct : 350584 mu s
[OF LOG] u correct : 351039 mu s
[OF LOG] u correct : 351264 mu s
[OF LOG] u correct : 352373 mu s
[OF LOG] u correct : 353702 mu s
[OF LOG] u correct : 357741 mu s
[OF LOG] u correct : 358725 mu s
[OF LOG] u correct : 358963 mu s
[OF LOG] u correct : 360243 mu s
[OF LOG] u correct : 360294 mu s
[OF LOG] u correct : 360528 mu s
[OF LOG] u correct : 361069 mu s
[OF LOG] u correct : 360838 mu s
[OF LOG] u correct : 364130 mu s
ExecutionTime = 1601.21 s  ClockTime = 1606 s

Time = 4e-05

Courant Number mean: 0.00105405 max: 0.0777033
[OF LOG] u assembly : 1282493 mu s
[OF LOG] u assembly : 1286223 mu s
[OF LOG] u assembly : 1307023 mu s
[OF LOG] u assembly : 1307482 mu s
[OF LOG] u assembly : 1309429 mu s
[OF LOG] u assembly : 1310793 mu s
[OF LOG] u assembly : 1311946 mu s
[OF LOG] u assembly : 1315453 mu s
[OF LOG] u assembly : 1321252 mu s
[OF LOG] u assembly : 1322278 mu s
[OF LOG] u assembly : 1323231 mu s
[OF LOG] u assembly : 1329952 mu s
[OF LOG] u assembly : 1336799 mu s
[OF LOG] u assembly : 1337584 mu s
[OF LOG] u assembly : 1338418 mu s
[OF LOG] u assembly : 1355803 mu s
DILUPBiCGStab:  Solving for Ux, Initial residual = 0.150295, Final residual = 0.00182751, No Iterations 5
DILUPBiCGStab:  Solving for Uy, Initial residual = 0.356466, Final residual = 0.00212008, No Iterations 5
DILUPBiCGStab:  Solving for Uz, Initial residual = 0.95904, Final residual = 0.00828146, No Iterations 5
[OF LOG] u solve : 11573184 mu s
[OF LOG] u solve : 11557130 mu s
[OF LOG] u solve : 11559542 mu s
[OF LOG] u solve : 11598285 mu s
[OF LOG] u solve : 11569069 mu s
linear solve U 10967155
[OF LOG] u solve : 11551209 mu s
[OF LOG] u solve : 11544556 mu s
[OF LOG] u solve : 11595175 mu s
[OF LOG] u solve : 11566574 mu s
[OF LOG] u solve : 11571324 mu s
[OF LOG] u solve : 11543827 mu s
[OF LOG] u solve : 11560072 mu s
[OF LOG] u solve : 11572950 mu s
[OF LOG] u solve : 11526721 mu s
[OF LOG] u solve : 11545036 mu s
[OF LOG] u solve : 11575207 mu s
[OF LOG] phiHbyA assembly : 842272 mu s
[OF LOG] phiHbyA assembly : 849759 mu s
[OF LOG] phiHbyA assembly : 873330 mu s
[OF LOG] phiHbyA assembly : 878964 mu s
[OF LOG] phiHbyA assembly : 887800 mu s
[OF LOG] phiHbyA assembly : 906774 mu s
[OF LOG] phiHbyA assembly : 906349 mu s
[OF LOG] phiHbyA assembly : 902686 mu s
[OF LOG] phiHbyA assembly : 903132 mu s
[OF LOG] phiHbyA assembly : 904117 mu s
[OF LOG] phiHbyA assembly : 913040 mu s
[OF LOG] phiHbyA assembly : 913581 mu s
[OF LOG] phiHbyA assembly : 910772 mu s
[OF LOG] phiHbyA assembly : 919774 mu s
[OF LOG] phiHbyA assembly : 917597 mu s
[OF LOG] phiHbyA assembly : 926409 mu s
[OF LOG] p assembly : 481097 mu s
[OF LOG] p assembly : 484673 mu s
[OF LOG] p assembly : 484718 mu s
[OF LOG] p assembly : 486506 mu s
[OF LOG] p assembly : 487662 mu s
[OF LOG] p assembly : 488176 mu s
[OF LOG] p assembly : 488408 mu s
[OF LOG] p assembly : 488926 mu s
[OF LOG] p assembly : 489180 mu s
[OF LOG] p assembly : 491989 mu s
[OF LOG] p assembly : 492843 mu s
[OF LOG] p assembly : 493555 mu s
[OF LOG] p assembly : 494496 mu s
[OF LOG] p assembly : 494862 mu s
[OF LOG] p assembly : 500141 mu s
[OF LOG] p assembly : 504485 mu s
[OGL LOG][Proc: 0]global_index_init : 20 mu s
[OGL LOG][Proc: 0]global_index_init : 2 mu s
[OGL LOG][Proc: 0]update_host_matrix_data : 217515 mu s
[OGL LOG][Proc: 0]gather_initGuess : 1 mu s
[OGL LOG][Proc: 0]gather_RHS : 0 mu s
[OGL LOG][Proc: 0]gather_global_matrix : 0 mu s
[OGL LOG][Proc: 0]init_precond : 47 mu s
[OGL LOG][Proc: 0]generate_solver : 0 mu s
[OGL LOG][Proc: 0]solve : 10601399 mu s
nonecudaGKOCG:  Solving for p, Initial residual = 1, Final residual = 1.90174e-05, No Iterations 3893
[OF LOG] p solve : 15789961 mu s
[OF LOG] p solve : 15790213 mu s
[OF LOG] p solve : 15790237 mu s
[OF LOG] p solve : 15790724 mu s
[OF LOG] p solve : 15790778 mu s
[OF LOG] p solve : 15790962 mu s
[OF LOG] p solve : 15791254 mu s
[OF LOG] p solve : 15791539 mu s
[OF LOG] p solve : 15791754 mu s
[OF LOG] p solve : 15795172 mu s
linear solve p 15795320
[OF LOG] p solve : 15795350 mu s
[OF LOG] p solve : 15795799 mu s
[OF LOG] p solve : 15796179 mu s
[OF LOG] p solve : 15796492 mu s
[OF LOG] p solve : 15797242 mu s
[OF LOG] p solve : 15797454 mu s
time step continuity errors : sum local = 4.21502e-11, global = -1.56465e-23, cumulative = 1.0357e-22
[OF LOG] u correct : 347710 mu s
[OF LOG] u correct : 351604 mu s
[OF LOG] u correct : 356498 mu s
[OF LOG] u correct : 357204 mu s
[OF LOG] u correct : 358077 mu s
[OF LOG] u correct : 362486 mu s
[OF LOG] u correct : 363769 mu s
[OF LOG] u correct : 364627 mu s
[OF LOG] u correct : 383955 mu s
[OF LOG] u correct : 384866 mu s
[OF LOG] u correct : 390611 mu s
[OF LOG] u correct : 390354 mu s
[OF LOG] u correct : 390947 mu s
[OF LOG] u correct : 391747 mu s
[OF LOG] u correct : 392323 mu s
[OF LOG] u correct : 393927 mu s
[OF LOG] phiHbyA assembly : 806812 mu s
[OF LOG] phiHbyA assembly : 839709 mu s
[OF LOG] phiHbyA assembly : 869627 mu s
[OF LOG] phiHbyA assembly : 869362 mu s
[OF LOG] phiHbyA assembly : 883802 mu s
[OF LOG] phiHbyA assembly : 801346 mu s
[OF LOG] phiHbyA assembly : 838280 mu s
[OF LOG] phiHbyA assembly : 839469 mu s
[OF LOG] phiHbyA assembly : 843284 mu s
[OF LOG] phiHbyA assembly : 852152 mu s
[OF LOG] phiHbyA assembly : 850923 mu s
[OF LOG] phiHbyA assembly : 857644 mu s
[OF LOG] phiHbyA assembly : 862578 mu s
[OF LOG] phiHbyA assembly : 864849 mu s
[OF LOG] phiHbyA assembly : 871490 mu s
[OF LOG] phiHbyA assembly : 877276 mu s
[OF LOG] p assembly : 480858 mu s
[OF LOG] p assembly : 481332 mu s
[OF LOG] p assembly : 484646 mu s
[OF LOG] p assembly : 487288 mu s
[OF LOG] p assembly : 487605 mu s
[OF LOG] p assembly : 488103 mu s
[OF LOG] p assembly : 489972 mu s
[OF LOG] p assembly : 491556 mu s
[OF LOG] p assembly : 491935 mu s
[OF LOG] p assembly : 493404 mu s
[OF LOG] p assembly : 495204 mu s
[OF LOG] p assembly : 495497 mu s
[OF LOG] p assembly : 496107 mu s
[OF LOG] p assembly : 496282 mu s
[OF LOG] p assembly : 499777 mu s
[OF LOG] p assembly : 505036 mu s
[OGL LOG][Proc: 0]global_index_init : 6 mu s
[OGL LOG][Proc: 0]global_index_init : 2 mu s
[OGL LOG][Proc: 0]update_host_matrix_data : 216143 mu s
[OGL LOG][Proc: 0]gather_initGuess : 1 mu s
[OGL LOG][Proc: 0]gather_RHS : 0 mu s
[OGL LOG][Proc: 0]gather_global_matrix : 0 mu s
[OGL LOG][Proc: 0]init_precond : 40 mu s
[OGL LOG][Proc: 0]generate_solver : 0 mu s
[OGL LOG][Proc: 0]solve : 8774753 mu s
nonecudaGKOCG:  Solving for p, Initial residual = 1, Final residual = 9.13685e-05, No Iterations 3256
[OF LOG] p solve : 13970752 mu s
[OF LOG] p solve : 13970842 mu s
[OF LOG] p solve : 13970887 mu s
[OF LOG] p solve : 13970944 mu s
[OF LOG] p solve : 13970939 mu s
[OF LOG] p solve : 13971084 mu s
[OF LOG] p solve : 13971225 mu s
[OF LOG] p solve : 13971318 mu s
[OF LOG] p solve : 13971690 mu s
[OF LOG] p solve : 13971683 mu s
[OF LOG] p solve : 13971741 mu s
[OF LOG] p solve : 13971702 mu s
linear solve p 13972170
[OF LOG] p solve : 13972196 mu s
[OF LOG] p solve : 13972398 mu s
[OF LOG] p solve : 13972677 mu s
[OF LOG] p solve : 13972767 mu s
time step continuity errors : sum local = 5.50358e-11, global = -2.28635e-24, cumulative = 1.01283e-22
[OF LOG] u correct : 348677 mu s
[OF LOG] u correct : 349187 mu s
[OF LOG] u correct : 351032 mu s
[OF LOG] u correct : 351263 mu s
[OF LOG] u correct : 352233 mu s
[OF LOG] u correct : 352363 mu s
[OF LOG] u correct : 354185 mu s
[OF LOG] u correct : 354875 mu s
[OF LOG] u correct : 355797 mu s
[OF LOG] u correct : 356387 mu s
[OF LOG] u correct : 356967 mu s
[OF LOG] u correct : 357463 mu s
[OF LOG] u correct : 358097 mu s
[OF LOG] u correct : 358288 mu s
[OF LOG] u correct : 358686 mu s
[OF LOG] u correct : 358473 mu s
ExecutionTime = 1648.02 s  ClockTime = 1655 s

Time = 6e-05

Courant Number mean: 0.00160517 max: 0.0884833
[OF LOG] u assembly : 1281579 mu s
[OF LOG] u assembly : 1284418 mu s
[OF LOG] u assembly : 1306222 mu s
[OF LOG] u assembly : 1308419 mu s
[OF LOG] u assembly : 1308553 mu s
[OF LOG] u assembly : 1309811 mu s
[OF LOG] u assembly : 1309969 mu s
[OF LOG] u assembly : 1317112 mu s
[OF LOG] u assembly : 1323099 mu s
[OF LOG] u assembly : 1323393 mu s
[OF LOG] u assembly : 1323901 mu s
[OF LOG] u assembly : 1329215 mu s
[OF LOG] u assembly : 1339009 mu s
[OF LOG] u assembly : 1340094 mu s
[OF LOG] u assembly : 1340994 mu s
[OF LOG] u assembly : 1356069 mu s
DILUPBiCGStab:  Solving for Ux, Initial residual = 0.0624421, Final residual = 0.000517304, No Iterations 5
DILUPBiCGStab:  Solving for Uy, Initial residual = 0.140505, Final residual = 0.000512142, No Iterations 5
DILUPBiCGStab:  Solving for Uz, Initial residual = 0.542243, Final residual = 0.00539, No Iterations 5
[OF LOG] u solve : 11551085 mu s
[OF LOG] u solve : 11537222 mu s
[OF LOG] u solve : 11537098 mu s
[OF LOG] u solve : 11531362 mu s
linear solve U 10943295
[OF LOG] u solve : 11579264 mu s
[OF LOG] u solve : 11520811 mu s
[OF LOG] u solve : 11576544 mu s
[OF LOG] u solve : 11551354 mu s
[OF LOG] u solve : 11544415 mu s
[OF LOG] u solve : 11551664 mu s
[OF LOG] u solve : 11522766 mu s
[OF LOG] u solve : 11555516 mu s
[OF LOG] u solve : 11537941 mu s
[OF LOG] u solve : 11521060 mu s
[OF LOG] u solve : 11506110 mu s
[OF LOG] u solve : 11553845 mu s
[OF LOG] phiHbyA assembly : 840661 mu s
[OF LOG] phiHbyA assembly : 848221 mu s
[OF LOG] phiHbyA assembly : 874477 mu s
[OF LOG] phiHbyA assembly : 859921 mu s
[OF LOG] phiHbyA assembly : 902578 mu s
[OF LOG] phiHbyA assembly : 868913 mu s
[OF LOG] phiHbyA assembly : 914843 mu s
[OF LOG] phiHbyA assembly : 875535 mu s
[OF LOG] phiHbyA assembly : 912624 mu s
[OF LOG] phiHbyA assembly : 927310 mu s
[OF LOG] phiHbyA assembly : 889906 mu s
[OF LOG] phiHbyA assembly : 900521 mu s
[OF LOG] phiHbyA assembly : 903908 mu s
[OF LOG] phiHbyA assembly : 912629 mu s
[OF LOG] phiHbyA assembly : 916121 mu s
[OF LOG] phiHbyA assembly : 926407 mu s
[OF LOG] p assembly : 461196 mu s
[OF LOG] p assembly : 482140 mu s
[OF LOG] p assembly : 484484 mu s
[OF LOG] p assembly : 484752 mu s
[OF LOG] p assembly : 486776 mu s
[OF LOG] p assembly : 487417 mu s
[OF LOG] p assembly : 488339 mu s
[OF LOG] p assembly : 489450 mu s
[OF LOG] p assembly : 490322 mu s
[OF LOG] p assembly : 495175 mu s
[OF LOG] p assembly : 495650 mu s
[OF LOG] p assembly : 497475 mu s
[OF LOG] p assembly : 499140 mu s
[OF LOG] p assembly : 499851 mu s
[OF LOG] p assembly : 505071 mu s
[OF LOG] p assembly : 507204 mu s
[OGL LOG][Proc: 0]global_index_init : 12 mu s
[OGL LOG][Proc: 0]global_index_init : 2 mu s
[OGL LOG][Proc: 0]update_host_matrix_data : 216260 mu s
[OGL LOG][Proc: 0]gather_initGuess : 0 mu s
[OGL LOG][Proc: 0]gather_RHS : 0 mu s
[OGL LOG][Proc: 0]gather_global_matrix : 0 mu s
[OGL LOG][Proc: 0]init_precond : 31 mu s
[OGL LOG][Proc: 0]generate_solver : 1 mu s
[OGL LOG][Proc: 0]solve : 9334909 mu s
nonecudaGKOCG:  Solving for p, Initial residual = 1, Final residual = 6.79037e-05, No Iterations 3511
[OF LOG] p solve : 14519683 mu s
[OF LOG] p solve : 14520417 mu s
[OF LOG] p solve : 14520661 mu s
[OF LOG] p solve : 14520721 mu s
[OF LOG] p solve : 14520922 mu s
[OF LOG] p solve : 14521094 mu s
[OF LOG] p solve : 14521169 mu s
[OF LOG] p solve : 14521241 mu s
[OF LOG] p solve : 14521396 mu s
[OF LOG] p solve : 14521478 mu s
[OF LOG] p solve : 14521493 mu s
[OF LOG] p solve : 14521583 mu s
linear solve p 14522071
[OF LOG] p solve : 14522104 mu s
[OF LOG] p solve : 14522264 mu s
[OF LOG] p solve : 14522360 mu s
[OF LOG] p solve : 14522672 mu s
time step continuity errors : sum local = 9.44327e-11, global = -1.03797e-22, cumulative = -2.51332e-24
[OF LOG] u correct : 347751 mu s
[OF LOG] u correct : 349960 mu s
[OF LOG] u correct : 351625 mu s
[OF LOG] u correct : 356629 mu s
[OF LOG] u correct : 357328 mu s
[OF LOG] u correct : 360910 mu s
[OF LOG] u correct : 362733 mu s
[OF LOG] u correct : 368454 mu s
[OF LOG] u correct : 375743 mu s
[OF LOG] u correct : 381352 mu s
[OF LOG] u correct : 382915 mu s
[OF LOG] u correct : 383835 mu s
[OF LOG] u correct : 384713 mu s
[OF LOG] u correct : 389821 mu s
[OF LOG] u correct : 390198 mu s
[OF LOG] u correct : 391567 mu s
[OF LOG] phiHbyA assembly : 803946 mu s
[OF LOG] phiHbyA assembly : 841029 mu s
[OF LOG] phiHbyA assembly : 866083 mu s
[OF LOG] phiHbyA assembly : 869376 mu s
[OF LOG] phiHbyA assembly : 881635 mu s
[OF LOG] phiHbyA assembly : 800010 mu s
[OF LOG] phiHbyA assembly : 804295 mu s
[OF LOG] phiHbyA assembly : 837770 mu s
[OF LOG] phiHbyA assembly : 840207 mu s
[OF LOG] phiHbyA assembly : 843293 mu s
[OF LOG] phiHbyA assembly : 850856 mu s
[OF LOG] phiHbyA assembly : 858101 mu s
[OF LOG] phiHbyA assembly : 862468 mu s
[OF LOG] phiHbyA assembly : 866167 mu s
[OF LOG] phiHbyA assembly : 865814 mu s
[OF LOG] phiHbyA assembly : 877384 mu s
[OF LOG] p assembly : 481435 mu s
[OF LOG] p assembly : 481478 mu s
[OF LOG] p assembly : 482384 mu s
[OF LOG] p assembly : 483404 mu s
[OF LOG] p assembly : 487319 mu s
[OF LOG] p assembly : 488563 mu s
[OF LOG] p assembly : 490041 mu s
[OF LOG] p assembly : 491560 mu s
[OF LOG] p assembly : 492292 mu s
[OF LOG] p assembly : 492809 mu s
[OF LOG] p assembly : 495331 mu s
[OF LOG] p assembly : 495642 mu s
[OF LOG] p assembly : 495769 mu s
[OF LOG] p assembly : 497498 mu s
[OF LOG] p assembly : 500166 mu s
[OF LOG] p assembly : 505171 mu s
[OGL LOG][Proc: 0]global_index_init : 14 mu s
[OGL LOG][Proc: 0]global_index_init : 2 mu s
[OGL LOG][Proc: 0]update_host_matrix_data : 216345 mu s
[OGL LOG][Proc: 0]gather_initGuess : 1 mu s
[OGL LOG][Proc: 0]gather_RHS : 0 mu s
[OGL LOG][Proc: 0]gather_global_matrix : 0 mu s
[OGL LOG][Proc: 0]init_precond : 30 mu s
[OGL LOG][Proc: 0]generate_solver : 1 mu s
[OGL LOG][Proc: 0]solve : 9159853 mu s
nonecudaGKOCG:  Solving for p, Initial residual = 1, Final residual = 5.08979e-05, No Iterations 3361
[OF LOG] p solve : 14342871 mu s
[OF LOG] p solve : 14342763 mu s
[OF LOG] p solve : 14342863 mu s
[OF LOG] p solve : 14342894 mu s
[OF LOG] p solve : 14343317 mu s
[OF LOG] p solve : 14343361 mu s
[OF LOG] p solve : 14343515 mu s
[OF LOG] p solve : 14343784 mu s
[OF LOG] p solve : 14348490 mu s
linear solve p 14348626
[OF LOG] p solve : 14348653 mu s
[OF LOG] p solve : 14348818 mu s
[OF LOG] p solve : 14349381 mu s
[OF LOG] p solve : 14349796 mu s
[OF LOG] p solve : 14350009 mu s
[OF LOG] p solve : 14350278 mu s
[OF LOG] p solve : 14350887 mu s
time step continuity errors : sum local = 2.83559e-11, global = -3.60542e-23, cumulative = -3.85675e-23
[OF LOG] u correct : 347610 mu s
[OF LOG] u correct : 349975 mu s
[OF LOG] u correct : 349846 mu s
[OF LOG] u correct : 351954 mu s
[OF LOG] u correct : 352311 mu s
[OF LOG] u correct : 352600 mu s
[OF LOG] u correct : 354091 mu s
[OF LOG] u correct : 355025 mu s
[OF LOG] u correct : 355857 mu s
[OF LOG] u correct : 356574 mu s
[OF LOG] u correct : 356752 mu s
[OF LOG] u correct : 357048 mu s
[OF LOG] u correct : 357437 mu s
[OF LOG] u correct : 357590 mu s
[OF LOG] u correct : 359147 mu s
[OF LOG] u correct : 361347 mu s
ExecutionTime = 1693.86 s  ClockTime = 1703 s

Time = 8e-05

Courant Number mean: 0.00199082 max: 0.0913921
[OF LOG] u assembly : 1282414 mu s
[OF LOG] u assembly : 1284145 mu s
[OF LOG] u assembly : 1307786 mu s
[OF LOG] u assembly : 1308326 mu s
[OF LOG] u assembly : 1308916 mu s
[OF LOG] u assembly : 1309633 mu s
[OF LOG] u assembly : 1309616 mu s
[OF LOG] u assembly : 1316496 mu s
[OF LOG] u assembly : 1319417 mu s
[OF LOG] u assembly : 1320987 mu s
[OF LOG] u assembly : 1323156 mu s
[OF LOG] u assembly : 1332903 mu s
[OF LOG] u assembly : 1339365 mu s
[OF LOG] u assembly : 1341292 mu s
[OF LOG] u assembly : 1341440 mu s
[OF LOG] u assembly : 1354730 mu s
DILUPBiCGStab:  Solving for Ux, Initial residual = 0.0415469, Final residual = 0.000261709, No Iterations 5
DILUPBiCGStab:  Solving for Uy, Initial residual = 0.0888479, Final residual = 0.000310506, No Iterations 5
DILUPBiCGStab:  Solving for Uz, Initial residual = 0.161458, Final residual = 0.00130418, No Iterations 5
[OF LOG] u solve : 11535086 mu s
linear solve U 10928335
[OF LOG] u solve : 11561298 mu s
[OF LOG] u solve : 11526222 mu s
[OF LOG] u solve : 11563233 mu s
[OF LOG] u solve : 11522529 mu s
[OF LOG] u solve : 11529384 mu s
[OF LOG] u solve : 11512992 mu s
[OF LOG] u solve : 11537590 mu s
[OF LOG] u solve : 11536322 mu s
[OF LOG] u solve : 11504667 mu s
[OF LOG] u solve : 11506651 mu s
[OF LOG] u solve : 11525075 mu s
[OF LOG] u solve : 11538374 mu s
[OF LOG] u solve : 11491527 mu s
[OF LOG] u solve : 11504914 mu s
[OF LOG] u solve : 11537539 mu s
[OF LOG] phiHbyA assembly : 843439 mu s
[OF LOG] phiHbyA assembly : 899180 mu s
[OF LOG] phiHbyA assembly : 905606 mu s
[OF LOG] phiHbyA assembly : 920425 mu s
[OF LOG] phiHbyA assembly : 929617 mu s
[OF LOG] phiHbyA assembly : 836509 mu s
[OF LOG] phiHbyA assembly : 854273 mu s
[OF LOG] phiHbyA assembly : 857865 mu s
[OF LOG] phiHbyA assembly : 872785 mu s
[OF LOG] phiHbyA assembly : 875027 mu s
[OF LOG] phiHbyA assembly : 880410 mu s
[OF LOG] phiHbyA assembly : 882843 mu s
[OF LOG] phiHbyA assembly : 901303 mu s
[OF LOG] phiHbyA assembly : 913262 mu s
[OF LOG] phiHbyA assembly : 919578 mu s
[OF LOG] phiHbyA assembly : 914479 mu s
[OF LOG] p assembly : 456907 mu s
[OF LOG] p assembly : 461629 mu s
[OF LOG] p assembly : 481401 mu s
[OF LOG] p assembly : 481496 mu s
[OF LOG] p assembly : 482844 mu s
[OF LOG] p assembly : 484677 mu s
[OF LOG] p assembly : 486585 mu s
[OF LOG] p assembly : 489085 mu s
[OF LOG] p assembly : 490717 mu s
[OF LOG] p assembly : 492533 mu s
[OF LOG] p assembly : 494601 mu s
[OF LOG] p assembly : 494790 mu s
[OF LOG] p assembly : 494968 mu s
[OF LOG] p assembly : 496605 mu s
[OF LOG] p assembly : 500789 mu s
[OF LOG] p assembly : 505416 mu s
[OGL LOG][Proc: 0]global_index_init : 15 mu s
[OGL LOG][Proc: 0]global_index_init : 2 mu s
[OGL LOG][Proc: 0]update_host_matrix_data : 216746 mu s
[OGL LOG][Proc: 0]gather_initGuess : 1 mu s
[OGL LOG][Proc: 0]gather_RHS : 0 mu s
[OGL LOG][Proc: 0]gather_global_matrix : 0 mu s
[OGL LOG][Proc: 0]init_precond : 31 mu s
[OGL LOG][Proc: 0]generate_solver : 1 mu s
[OGL LOG][Proc: 0]solve : 9063585 mu s
nonecudaGKOCG:  Solving for p, Initial residual = 1, Final residual = 9.14556e-05, No Iterations 3351
[OF LOG] p solve : 14252289 mu s
[OF LOG] p solve : 14253001 mu s
[OF LOG] p solve : 14253032 mu s
[OF LOG] p solve : 14253278 mu s
[OF LOG] p solve : 14253559 mu s
[OF LOG] p solve : 14253880 mu s
[OF LOG] p solve : 14253924 mu s
[OF LOG] p solve : 14254027 mu s
[OF LOG] p solve : 14254264 mu s
[OF LOG] p solve : 14254346 mu s
[OF LOG] p solve : 14254367 mu s
[OF LOG] p solve : 14254407 mu s
linear solve p 14254875
[OF LOG] p solve : 14254908 mu s
[OF LOG] p solve : 14255072 mu s
[OF LOG] p solve : 14255183 mu s
[OF LOG] p solve : 14255539 mu s
time step continuity errors : sum local = 9.94929e-11, global = -9.05264e-23, cumulative = -1.29094e-22
[OF LOG] u correct : 348844 mu s
[OF LOG] u correct : 348851 mu s
[OF LOG] u correct : 350371 mu s
[OF LOG] u correct : 354639 mu s
[OF LOG] u correct : 356031 mu s
[OF LOG] u correct : 357246 mu s
[OF LOG] u correct : 359514 mu s
[OF LOG] u correct : 359653 mu s
[OF LOG] u correct : 365834 mu s
[OF LOG] u correct : 366085 mu s
[OF LOG] u correct : 366801 mu s
[OF LOG] u correct : 368417 mu s
[OF LOG] u correct : 372976 mu s
[OF LOG] u correct : 380387 mu s
[OF LOG] u correct : 384096 mu s
[OF LOG] u correct : 390277 mu s
[OF LOG] phiHbyA assembly : 801024 mu s
[OF LOG] phiHbyA assembly : 800556 mu s
[OF LOG] phiHbyA assembly : 811697 mu s
[OF LOG] phiHbyA assembly : 838086 mu s
[OF LOG] phiHbyA assembly : 836120 mu s
[OF LOG] phiHbyA assembly : 863973 mu s
[OF LOG] phiHbyA assembly : 867280 mu s
[OF LOG] phiHbyA assembly : 854333 mu s
[OF LOG] phiHbyA assembly : 875364 mu s
[OF LOG] phiHbyA assembly : 864129 mu s
[OF LOG] phiHbyA assembly : 863646 mu s
[OF LOG] phiHbyA assembly : 865074 mu s
[OF LOG] phiHbyA assembly : 878172 mu s
[OF LOG] phiHbyA assembly : 871332 mu s
[OF LOG] phiHbyA assembly : 878735 mu s
[OF LOG] phiHbyA assembly : 885958 mu s
[OF LOG] p assembly : 479927 mu s
[OF LOG] p assembly : 481193 mu s
[OF LOG] p assembly : 481340 mu s
[OF LOG] p assembly : 484218 mu s
[OF LOG] p assembly : 486837 mu s
[OF LOG] p assembly : 487545 mu s
[OF LOG] p assembly : 487700 mu s
[OF LOG] p assembly : 490215 mu s
[OF LOG] p assembly : 491516 mu s
[OF LOG] p assembly : 492096 mu s
[OF LOG] p assembly : 492939 mu s
[OF LOG] p assembly : 495313 mu s
[OF LOG] p assembly : 495844 mu s
[OF LOG] p assembly : 496083 mu s
[OF LOG] p assembly : 499640 mu s
[OF LOG] p assembly : 505122 mu s
[OGL LOG][Proc: 0]global_index_init : 13 mu s
[OGL LOG][Proc: 0]global_index_init : 2 mu s
[OGL LOG][Proc: 0]update_host_matrix_data : 216258 mu s
[OGL LOG][Proc: 0]gather_initGuess : 1 mu s
[OGL LOG][Proc: 0]gather_RHS : 0 mu s
[OGL LOG][Proc: 0]gather_global_matrix : 0 mu s
[OGL LOG][Proc: 0]init_precond : 30 mu s
[OGL LOG][Proc: 0]generate_solver : 0 mu s
[OGL LOG][Proc: 0]solve : 7152731 mu s
nonecudaGKOCG:  Solving for p, Initial residual = 1, Final residual = 6.63846e-05, No Iterations 2681
[OF LOG] p solve : 12343425 mu s
[OF LOG] p solve : 12344054 mu s
[OF LOG] p solve : 12344452 mu s
[OF LOG] p solve : 12344769 mu s
[OF LOG] p solve : 12345005 mu s
[OF LOG] p solve : 12345285 mu s
[OF LOG] p solve : 12345427 mu s
[OF LOG] p solve : 12345590 mu s
[OF LOG] p solve : 12345661 mu s
[OF LOG] p solve : 12346036 mu s
[OF LOG] p solve : 12346000 mu s
[OF LOG] p solve : 12346069 mu s
linear solve p 12346463
[OF LOG] p solve : 12346489 mu s
[OF LOG] p solve : 12346716 mu s
[OF LOG] p solve : 12346986 mu s
[OF LOG] p solve : 12347068 mu s
time step continuity errors : sum local = 3.8023e-11, global = -9.83303e-23, cumulative = -2.27424e-22
[OF LOG] u correct : 347587 mu s
[OF LOG] u correct : 348057 mu s
[OF LOG] u correct : 348402 mu s
[OF LOG] u correct : 348786 mu s
[OF LOG] u correct : 350083 mu s
[OF LOG] u correct : 351935 mu s
[OF LOG] u correct : 352293 mu s
[OF LOG] u correct : 356382 mu s
[OF LOG] u correct : 356530 mu s
[OF LOG] u correct : 357073 mu s
[OF LOG] u correct : 358283 mu s
[OF LOG] u correct : 358169 mu s
[OF LOG] u correct : 358398 mu s
[OF LOG] u correct : 358737 mu s
[OF LOG] u correct : 359021 mu s
[OF LOG] u correct : 382389 mu s
ExecutionTime = 1737.87 s  ClockTime = 1748 s

Time = 0.0001

Courant Number mean: 0.00230459 max: 0.0927901
[OF LOG] u assembly : 1284225 mu s
[OF LOG] u assembly : 1284562 mu s
[OF LOG] u assembly : 1308193 mu s
[OF LOG] u assembly : 1308857 mu s
[OF LOG] u assembly : 1309558 mu s
[OF LOG] u assembly : 1310821 mu s
[OF LOG] u assembly : 1312923 mu s
[OF LOG] u assembly : 1321061 mu s
[OF LOG] u assembly : 1323063 mu s
[OF LOG] u assembly : 1324812 mu s
[OF LOG] u assembly : 1324858 mu s
[OF LOG] u assembly : 1333431 mu s
[OF LOG] u assembly : 1334055 mu s
[OF LOG] u assembly : 1339462 mu s
[OF LOG] u assembly : 1339734 mu s
[OF LOG] u assembly : 1358046 mu s
DILUPBiCGStab:  Solving for Ux, Initial residual = 0.0318563, Final residual = 0.000149377, No Iterations 5
DILUPBiCGStab:  Solving for Uy, Initial residual = 0.063714, Final residual = 0.000178182, No Iterations 5
DILUPBiCGStab:  Solving for Uz, Initial residual = 0.091807, Final residual = 0.000705378, No Iterations 5
[OF LOG] u solve : 11535694 mu s
[OF LOG] u solve : 11520562 mu s
linear solve U 10927999
[OF LOG] u solve : 11524580 mu s
[OF LOG] u solve : 11561456 mu s
[OF LOG] u solve : 11561355 mu s
[OF LOG] u solve : 11512007 mu s
[OF LOG] u solve : 11533233 mu s
[OF LOG] u solve : 11512757 mu s
[OF LOG] u solve : 11521582 mu s
[OF LOG] u solve : 11535701 mu s
[OF LOG] u solve : 11507210 mu s
[OF LOG] u solve : 11523738 mu s
[OF LOG] u solve : 11538066 mu s
[OF LOG] u solve : 11507247 mu s
[OF LOG] u solve : 11489043 mu s
[OF LOG] u solve : 11538981 mu s
[OF LOG] phiHbyA assembly : 845430 mu s
[OF LOG] phiHbyA assembly : 879008 mu s
[OF LOG] phiHbyA assembly : 905554 mu s
[OF LOG] phiHbyA assembly : 904671 mu s
[OF LOG] phiHbyA assembly : 922307 mu s
[OF LOG] phiHbyA assembly : 831358 mu s
[OF LOG] phiHbyA assembly : 836390 mu s
[OF LOG] phiHbyA assembly : 838661 mu s
[OF LOG] phiHbyA assembly : 841060 mu s
[OF LOG] phiHbyA assembly : 853395 mu s
[OF LOG] phiHbyA assembly : 870679 mu s
[OF LOG] phiHbyA assembly : 890290 mu s
[OF LOG] phiHbyA assembly : 895865 mu s
[OF LOG] phiHbyA assembly : 902453 mu s
[OF LOG] phiHbyA assembly : 902611 mu s
[OF LOG] phiHbyA assembly : 914584 mu s
[OF LOG] p assembly : 454914 mu s
[OF LOG] p assembly : 463436 mu s
[OF LOG] p assembly : 474553 mu s
[OF LOG] p assembly : 481181 mu s
[OF LOG] p assembly : 482306 mu s
[OF LOG] p assembly : 488741 mu s
[OF LOG] p assembly : 490760 mu s
[OF LOG] p assembly : 492458 mu s
[OF LOG] p assembly : 493527 mu s
[OF LOG] p assembly : 495180 mu s
[OF LOG] p assembly : 495594 mu s
[OF LOG] p assembly : 495704 mu s
[OF LOG] p assembly : 500079 mu s
[OF LOG] p assembly : 505736 mu s
[OF LOG] p assembly : 508343 mu s
[OF LOG] p assembly : 510876 mu s
[OGL LOG][Proc: 0]global_index_init : 15 mu s
[OGL LOG][Proc: 0]global_index_init : 2 mu s
[OGL LOG][Proc: 0]update_host_matrix_data : 216517 mu s
[OGL LOG][Proc: 0]gather_initGuess : 1 mu s
[OGL LOG][Proc: 0]gather_RHS : 0 mu s
[OGL LOG][Proc: 0]gather_global_matrix : 0 mu s
[OGL LOG][Proc: 0]init_precond : 31 mu s
[OGL LOG][Proc: 0]generate_solver : 0 mu s
[OGL LOG][Proc: 0]solve : 5977651 mu s
nonecudaGKOCG:  Solving for p, Initial residual = 1, Final residual = 5.6886e-06, No Iterations 2248
[OF LOG] p solve : 11167081 mu s
[OF LOG] p solve : 11167597 mu s
[OF LOG] p solve : 11167614 mu s
[OF LOG] p solve : 11167901 mu s
[OF LOG] p solve : 11168888 mu s
[OF LOG] p solve : 11169562 mu s
[OF LOG] p solve : 11170023 mu s
[OF LOG] p solve : 11170672 mu s
[OF LOG] p solve : 11171085 mu s
[OF LOG] p solve : 11173563 mu s
linear solve p 11173698
[OF LOG] p solve : 11173731 mu s
[OF LOG] p solve : 11174225 mu s
[OF LOG] p solve : 11174359 mu s
[OF LOG] p solve : 11174916 mu s
[OF LOG] p solve : 11175604 mu s
[OF LOG] p solve : 11175712 mu s
time step continuity errors : sum local = 4.88249e-12, global = 4.87209e-24, cumulative = -2.22552e-22
[OF LOG] u correct : 351154 mu s
[OF LOG] u correct : 355808 mu s
[OF LOG] u correct : 355888 mu s
[OF LOG] u correct : 357134 mu s
[OF LOG] u correct : 358098 mu s
[OF LOG] u correct : 363961 mu s
[OF LOG] u correct : 364423 mu s
[OF LOG] u correct : 364499 mu s
[OF LOG] u correct : 365210 mu s
[OF LOG] u correct : 381137 mu s
[OF LOG] u correct : 381510 mu s
[OF LOG] u correct : 383918 mu s
[OF LOG] u correct : 384425 mu s
[OF LOG] u correct : 389744 mu s
[OF LOG] u correct : 390648 mu s
[OF LOG] u correct : 391094 mu s
[OF LOG] phiHbyA assembly : 805691 mu s
[OF LOG] phiHbyA assembly : 839863 mu s
[OF LOG] phiHbyA assembly : 865754 mu s
[OF LOG] phiHbyA assembly : 868966 mu s
[OF LOG] phiHbyA assembly : 883278 mu s
[OF LOG] phiHbyA assembly : 800354 mu s
[OF LOG] phiHbyA assembly : 801858 mu s
[OF LOG] phiHbyA assembly : 840384 mu s
[OF LOG] phiHbyA assembly : 837294 mu s
[OF LOG] phiHbyA assembly : 841512 mu s
[OF LOG] phiHbyA assembly : 851196 mu s
[OF LOG] phiHbyA assembly : 863548 mu s
[OF LOG] phiHbyA assembly : 857059 mu s
[OF LOG] phiHbyA assembly : 866717 mu s
[OF LOG] phiHbyA assembly : 867332 mu s
[OF LOG] phiHbyA assembly : 876887 mu s
[OF LOG] p assembly : 479446 mu s
[OF LOG] p assembly : 482029 mu s
[OF LOG] p assembly : 483816 mu s
[OF LOG] p assembly : 484113 mu s
[OF LOG] p assembly : 487034 mu s
[OF LOG] p assembly : 487628 mu s
[OF LOG] p assembly : 489812 mu s
[OF LOG] p assembly : 492008 mu s
[OF LOG] p assembly : 492833 mu s
[OF LOG] p assembly : 495471 mu s
[OF LOG] p assembly : 496340 mu s
[OF LOG] p assembly : 496867 mu s
[OF LOG] p assembly : 498392 mu s
[OF LOG] p assembly : 498958 mu s
[OF LOG] p assembly : 500063 mu s
[OF LOG] p assembly : 505340 mu s
[OGL LOG][Proc: 0]global_index_init : 13 mu s
[OGL LOG][Proc: 0]global_index_init : 2 mu s
[OGL LOG][Proc: 0]update_host_matrix_data : 215770 mu s
[OGL LOG][Proc: 0]gather_initGuess : 1 mu s
[OGL LOG][Proc: 0]gather_RHS : 0 mu s
[OGL LOG][Proc: 0]gather_global_matrix : 0 mu s
[OGL LOG][Proc: 0]init_precond : 31 mu s
[OGL LOG][Proc: 0]generate_solver : 1 mu s
[OGL LOG][Proc: 0]solve : 5190380 mu s
nonecudaGKOCG:  Solving for p, Initial residual = 1, Final residual = 2.28203e-05, No Iterations 1870
[OF LOG] p solve : 10379215 mu s
[OF LOG] p solve : 10379267 mu s
[OF LOG] p solve : 10379353 mu s
[OF LOG] p solve : 10379727 mu s
[OF LOG] p solve : 10379808 mu s
[OF LOG] p solve : 10379858 mu s
[OF LOG] p solve : 10380185 mu s
[OF LOG] p solve : 10380335 mu s
[OF LOG] p solve : 10380385 mu s
[OF LOG] p solve : 10380515 mu s
[OF LOG] p solve : 10380531 mu s
[OF LOG] p solve : 10380528 mu s
linear solve p 10380810
[OF LOG] p solve : 10380836 mu s
[OF LOG] p solve : 10381035 mu s
[OF LOG] p solve : 10381338 mu s
[OF LOG] p solve : 10381412 mu s
time step continuity errors : sum local = 1.30171e-11, global = -9.1341e-23, cumulative = -3.13893e-22
[OF LOG] u correct : 346956 mu s
[OF LOG] u correct : 347415 mu s
[OF LOG] u correct : 347717 mu s
[OF LOG] u correct : 348003 mu s
[OF LOG] u correct : 349719 mu s
[OF LOG] u correct : 351224 mu s
[OF LOG] u correct : 353235 mu s
[OF LOG] u correct : 355423 mu s
[OF LOG] u correct : 355766 mu s
[OF LOG] u correct : 356597 mu s
[OF LOG] u correct : 357229 mu s
[OF LOG] u correct : 357944 mu s
[OF LOG] u correct : 357715 mu s
[OF LOG] u correct : 358642 mu s
[OF LOG] u correct : 358393 mu s
[OF LOG] u correct : 358469 mu s
ExecutionTime = 1777.52 s  ClockTime = 1789 s

Time = 0.00012

Courant Number mean: 0.00257313 max: 0.0936664
[OF LOG] u assembly : 1283751 mu s
[OF LOG] u assembly : 1285963 mu s
[OF LOG] u assembly : 1308013 mu s
[OF LOG] u assembly : 1308908 mu s
[OF LOG] u assembly : 1309001 mu s
[OF LOG] u assembly : 1309057 mu s
[OF LOG] u assembly : 1310563 mu s
[OF LOG] u assembly : 1315179 mu s
[OF LOG] u assembly : 1318902 mu s
[OF LOG] u assembly : 1321291 mu s
[OF LOG] u assembly : 1324064 mu s
[OF LOG] u assembly : 1328003 mu s
[OF LOG] u assembly : 1337747 mu s
[OF LOG] u assembly : 1338484 mu s
[OF LOG] u assembly : 1338505 mu s
[OF LOG] u assembly : 1354954 mu s
DILUPBiCGStab:  Solving for Ux, Initial residual = 0.025961, Final residual = 9.81633e-05, No Iterations 5
DILUPBiCGStab:  Solving for Uy, Initial residual = 0.0501165, Final residual = 0.000104563, No Iterations 5
DILUPBiCGStab:  Solving for Uz, Initial residual = 0.0805017, Final residual = 0.000592795, No Iterations 5
[OF LOG] u solve : 11523942 mu s
[OF LOG] u solve : 11514908 mu s
[OF LOG] u solve : 11509724 mu s
[OF LOG] u solve : 11550082 mu s
[OF LOG] u solve : 11505906 mu s
[OF LOG] u solve : 11523498 mu s
[OF LOG] u solve : 11548205 mu s
[OF LOG] u solve : 11495661 mu s
linear solve U 10919926
[OF LOG] u solve : 11519625 mu s
[OF LOG] u solve : 11526027 mu s
[OF LOG] u solve : 11496656 mu s
[OF LOG] u solve : 11526136 mu s
[OF LOG] u solve : 11513925 mu s
[OF LOG] u solve : 11497691 mu s
[OF LOG] u solve : 11480587 mu s
[OF LOG] u solve : 11527606 mu s
[OF LOG] phiHbyA assembly : 835786 mu s
[OF LOG] phiHbyA assembly : 840681 mu s
[OF LOG] phiHbyA assembly : 830500 mu s
[OF LOG] phiHbyA assembly : 848371 mu s
[OF LOG] phiHbyA assembly : 851049 mu s
[OF LOG] phiHbyA assembly : 851443 mu s
[OF LOG] phiHbyA assembly : 872807 mu s
[OF LOG] phiHbyA assembly : 903396 mu s
[OF LOG] phiHbyA assembly : 901471 mu s
[OF LOG] phiHbyA assembly : 890858 mu s
[OF LOG] phiHbyA assembly : 915998 mu s
[OF LOG] phiHbyA assembly : 916298 mu s
[OF LOG] phiHbyA assembly : 903945 mu s
[OF LOG] phiHbyA assembly : 909349 mu s
[OF LOG] phiHbyA assembly : 917103 mu s
[OF LOG] phiHbyA assembly : 926370 mu s
[OF LOG] p assembly : 455462 mu s
[OF LOG] p assembly : 456454 mu s
[OF LOG] p assembly : 460012 mu s
[OF LOG] p assembly : 481407 mu s
[OF LOG] p assembly : 483275 mu s
[OF LOG] p assembly : 483749 mu s
[OF LOG] p assembly : 487992 mu s
[OF LOG] p assembly : 488639 mu s
[OF LOG] p assembly : 490329 mu s
[OF LOG] p assembly : 492480 mu s
[OF LOG] p assembly : 494215 mu s
[OF LOG] p assembly : 495245 mu s
[OF LOG] p assembly : 495288 mu s
[OF LOG] p assembly : 499534 mu s
[OF LOG] p assembly : 500304 mu s
[OF LOG] p assembly : 505140 mu s
[OGL LOG][Proc: 0]global_index_init : 16 mu s
[OGL LOG][Proc: 0]global_index_init : 2 mu s
[OGL LOG][Proc: 0]update_host_matrix_data : 216441 mu s
[OGL LOG][Proc: 0]gather_initGuess : 1 mu s
[OGL LOG][Proc: 0]gather_RHS : 0 mu s
[OGL LOG][Proc: 0]gather_global_matrix : 0 mu s
[OGL LOG][Proc: 0]init_precond : 31 mu s
[OGL LOG][Proc: 0]generate_solver : 0 mu s
[OGL LOG][Proc: 0]solve : 4857416 mu s
nonecudaGKOCG:  Solving for p, Initial residual = 1, Final residual = 8.06437e-05, No Iterations 1777
[OF LOG] p solve : 10050804 mu s
[OF LOG] p solve : 10052000 mu s
[OF LOG] p solve : 10051977 mu s
[OF LOG] p solve : 10052207 mu s
[OF LOG] p solve : 10052362 mu s
[OF LOG] p solve : 10052475 mu s
[OF LOG] p solve : 10052585 mu s
[OF LOG] p solve : 10053242 mu s
[OF LOG] p solve : 10053299 mu s
[OF LOG] p solve : 10054927 mu s
[OF LOG] p solve : 10055005 mu s
[OF LOG] p solve : 10055300 mu s
linear solve p 10055375
[OF LOG] p solve : 10055408 mu s
[OF LOG] p solve : 10055760 mu s
[OF LOG] p solve : 10055756 mu s
[OF LOG] p solve : 10056030 mu s
time step continuity errors : sum local = 5.91168e-11, global = -1.93139e-23, cumulative = -3.33207e-22
[OF LOG] u correct : 354036 mu s
[OF LOG] u correct : 354056 mu s
[OF LOG] u correct : 355901 mu s
[OF LOG] u correct : 357085 mu s
[OF LOG] u correct : 357795 mu s
[OF LOG] u correct : 358178 mu s
[OF LOG] u correct : 359267 mu s
[OF LOG] u correct : 360011 mu s
[OF LOG] u correct : 363598 mu s
[OF LOG] u correct : 376840 mu s
[OF LOG] u correct : 379247 mu s
[OF LOG] u correct : 381871 mu s
[OF LOG] u correct : 383293 mu s
[OF LOG] u correct : 389847 mu s
[OF LOG] u correct : 390395 mu s
[OF LOG] u correct : 390821 mu s
[OF LOG] phiHbyA assembly : 805802 mu s
[OF LOG] phiHbyA assembly : 841552 mu s
[OF LOG] phiHbyA assembly : 867007 mu s
[OF LOG] phiHbyA assembly : 869325 mu s
[OF LOG] phiHbyA assembly : 882966 mu s
[OF LOG] phiHbyA assembly : 800403 mu s
[OF LOG] phiHbyA assembly : 803735 mu s
[OF LOG] phiHbyA assembly : 841727 mu s
[OF LOG] phiHbyA assembly : 838252 mu s
[OF LOG] phiHbyA assembly : 843583 mu s
[OF LOG] phiHbyA assembly : 852053 mu s
[OF LOG] phiHbyA assembly : 859552 mu s
[OF LOG] phiHbyA assembly : 861843 mu s
[OF LOG] phiHbyA assembly : 865083 mu s
[OF LOG] phiHbyA assembly : 868129 mu s
[OF LOG] phiHbyA assembly : 876249 mu s
[OF LOG] p assembly : 480959 mu s
[OF LOG] p assembly : 482179 mu s
[OF LOG] p assembly : 483250 mu s
[OF LOG] p assembly : 485502 mu s
[OF LOG] p assembly : 487292 mu s
[OF LOG] p assembly : 488702 mu s
[OF LOG] p assembly : 489174 mu s
[OF LOG] p assembly : 489959 mu s
[OF LOG] p assembly : 493162 mu s
[OF LOG] p assembly : 493361 mu s
[OF LOG] p assembly : 494792 mu s
[OF LOG] p assembly : 496634 mu s
[OF LOG] p assembly : 497054 mu s
[OF LOG] p assembly : 497358 mu s
[OF LOG] p assembly : 500223 mu s
[OF LOG] p assembly : 505761 mu s
[OGL LOG][Proc: 0]global_index_init : 14 mu s
[OGL LOG][Proc: 0]global_index_init : 2 mu s
[OGL LOG][Proc: 0]update_host_matrix_data : 216454 mu s
[OGL LOG][Proc: 0]gather_initGuess : 1 mu s
[OGL LOG][Proc: 0]gather_RHS : 0 mu s
[OGL LOG][Proc: 0]gather_global_matrix : 0 mu s
[OGL LOG][Proc: 0]init_precond : 33 mu s
[OGL LOG][Proc: 0]generate_solver : 1 mu s
[OGL LOG][Proc: 0]solve : 4614541 mu s
nonecudaGKOCG:  Solving for p, Initial residual = 1, Final residual = 8.57199e-05, No Iterations 1705
[OF LOG] p solve : 9808345 mu s
linear solve p 9808471
[OF LOG] p solve : 9808496 mu s
[OF LOG] p solve : 9808679 mu s
[OF LOG] p solve : 9809008 mu s
[OF LOG] p solve : 9809138 mu s
[OF LOG] p solve : 9809202 mu s
[OF LOG] p solve : 9809199 mu s
[OF LOG] p solve : 9809270 mu s
[OF LOG] p solve : 9809325 mu s
[OF LOG] p solve : 9809589 mu s
[OF LOG] p solve : 9809713 mu s
[OF LOG] p solve : 9810118 mu s
[OF LOG] p solve : 9810159 mu s
[OF LOG] p solve : 9810307 mu s
[OF LOG] p solve : 9810527 mu s
[OF LOG] p solve : 9810853 mu s
time step continuity errors : sum local = 4.82511e-11, global = -1.22472e-22, cumulative = -4.55679e-22
[OF LOG] u correct : 346573 mu s
[OF LOG] u correct : 347486 mu s
[OF LOG] u correct : 347719 mu s
[OF LOG] u correct : 348689 mu s
[OF LOG] u correct : 350952 mu s
[OF LOG] u correct : 354811 mu s
[OF LOG] u correct : 355645 mu s
[OF LOG] u correct : 356559 mu s
[OF LOG] u correct : 357301 mu s
[OF LOG] u correct : 357393 mu s
[OF LOG] u correct : 358291 mu s
[OF LOG] u correct : 359391 mu s
[OF LOG] u correct : 359458 mu s
[OF LOG] u correct : 361267 mu s
[OF LOG] u correct : 363140 mu s
[OF LOG] u correct : 364340 mu s
ExecutionTime = 1815.54 s  ClockTime = 1828 s

Time = 0.00014

Courant Number mean: 0.00281064 max: 0.0942759
[OF LOG] u assembly : 1282657 mu s
[OF LOG] u assembly : 1286527 mu s
[OF LOG] u assembly : 1307348 mu s
[OF LOG] u assembly : 1307767 mu s
[OF LOG] u assembly : 1308347 mu s
[OF LOG] u assembly : 1308861 mu s
[OF LOG] u assembly : 1309983 mu s
[OF LOG] u assembly : 1314925 mu s
[OF LOG] u assembly : 1320423 mu s
[OF LOG] u assembly : 1320476 mu s
[OF LOG] u assembly : 1326376 mu s
[OF LOG] u assembly : 1332655 mu s
[OF LOG] u assembly : 1337213 mu s
[OF LOG] u assembly : 1339865 mu s
[OF LOG] u assembly : 1340600 mu s
[OF LOG] u assembly : 1353941 mu s
DILUPBiCGStab:  Solving for Ux, Initial residual = 0.0220386, Final residual = 6.42412e-05, No Iterations 5
DILUPBiCGStab:  Solving for Uy, Initial residual = 0.0411618, Final residual = 8.52968e-05, No Iterations 5
DILUPBiCGStab:  Solving for Uz, Initial residual = 0.0670687, Final residual = 0.000386579, No Iterations 5
[OF LOG] u solve : 11505617 mu s
[OF LOG] u solve : 11511835 mu s
[OF LOG] u solve : 11524952 mu s
[OF LOG] u solve : 11549858 mu s
linear solve U 10917076
[OF LOG] u solve : 11500244 mu s
[OF LOG] u solve : 11492354 mu s
[OF LOG] u solve : 11524055 mu s
[OF LOG] u solve : 11546398 mu s
[OF LOG] u solve : 11518482 mu s
[OF LOG] u solve : 11523759 mu s
[OF LOG] u solve : 11496633 mu s
[OF LOG] u solve : 11513506 mu s
[OF LOG] u solve : 11526141 mu s
[OF LOG] u solve : 11480194 mu s
[OF LOG] u solve : 11525913 mu s
[OF LOG] u solve : 11494353 mu s
[OF LOG] phiHbyA assembly : 844162 mu s
[OF LOG] phiHbyA assembly : 878091 mu s
[OF LOG] phiHbyA assembly : 903748 mu s
[OF LOG] phiHbyA assembly : 915368 mu s
[OF LOG] phiHbyA assembly : 921218 mu s
[OF LOG] phiHbyA assembly : 836418 mu s
[OF LOG] phiHbyA assembly : 839330 mu s
[OF LOG] phiHbyA assembly : 840025 mu s
[OF LOG] phiHbyA assembly : 852673 mu s
[OF LOG] phiHbyA assembly : 874829 mu s
[OF LOG] phiHbyA assembly : 874170 mu s
[OF LOG] phiHbyA assembly : 882253 mu s
[OF LOG] phiHbyA assembly : 894923 mu s
[OF LOG] phiHbyA assembly : 899714 mu s
[OF LOG] phiHbyA assembly : 907461 mu s
[OF LOG] phiHbyA assembly : 912323 mu s
[OF LOG] p assembly : 460378 mu s
[OF LOG] p assembly : 463861 mu s
[OF LOG] p assembly : 482622 mu s
[OF LOG] p assembly : 483261 mu s
[OF LOG] p assembly : 484909 mu s
[OF LOG] p assembly : 486209 mu s
[OF LOG] p assembly : 488642 mu s
[OF LOG] p assembly : 489819 mu s
[OF LOG] p assembly : 489861 mu s
[OF LOG] p assembly : 490055 mu s
[OF LOG] p assembly : 492404 mu s
[OF LOG] p assembly : 495430 mu s
[OF LOG] p assembly : 496249 mu s
[OF LOG] p assembly : 497570 mu s
[OF LOG] p assembly : 500373 mu s
[OF LOG] p assembly : 506309 mu s
[OGL LOG][Proc: 0]global_index_init : 19 mu s
[OGL LOG][Proc: 0]global_index_init : 2 mu s
[OGL LOG][Proc: 0]update_host_matrix_data : 225372 mu s
[OGL LOG][Proc: 0]gather_initGuess : 1 mu s
[OGL LOG][Proc: 0]gather_RHS : 0 mu s
[OGL LOG][Proc: 0]gather_global_matrix : 0 mu s
[OGL LOG][Proc: 0]init_precond : 38 mu s
[OGL LOG][Proc: 0]generate_solver : 0 mu s
[OGL LOG][Proc: 0]solve : 4734984 mu s
nonecudaGKOCG:  Solving for p, Initial residual = 1, Final residual = 8.50093e-05, No Iterations 1769
[OF LOG] p solve : 9927837 mu s
[OF LOG] p solve : 9928217 mu s
[OF LOG] p solve : 9928257 mu s
[OF LOG] p solve : 9928281 mu s
[OF LOG] p solve : 9928363 mu s
[OF LOG] p solve : 9928361 mu s
[OF LOG] p solve : 9928648 mu s
[OF LOG] p solve : 9936085 mu s
[OF LOG] p solve : 9936689 mu s
[OF LOG] p solve : 9940032 mu s
linear solve p 9940245
[OF LOG] p solve : 9940275 mu s
[OF LOG] p solve : 9940778 mu s
[OF LOG] p solve : 9940758 mu s
[OF LOG] p solve : 9941292 mu s
[OF LOG] p solve : 9942124 mu s
[OF LOG] p solve : 9942248 mu s
time step continuity errors : sum local = 5.68865e-11, global = -5.02269e-23, cumulative = -5.05905e-22
[OF LOG] u correct : 348435 mu s
[OF LOG] u correct : 348773 mu s
[OF LOG] u correct : 351707 mu s
[OF LOG] u correct : 351805 mu s
[OF LOG] u correct : 352048 mu s
[OF LOG] u correct : 353134 mu s
[OF LOG] u correct : 354901 mu s
[OF LOG] u correct : 357062 mu s
[OF LOG] u correct : 359127 mu s
[OF LOG] u correct : 359649 mu s
[OF LOG] u correct : 361353 mu s
[OF LOG] u correct : 362829 mu s
[OF LOG] u correct : 364241 mu s
[OF LOG] u correct : 382420 mu s
[OF LOG] u correct : 389956 mu s
[OF LOG] u correct : 390319 mu s
[OF LOG] phiHbyA assembly : 800295 mu s
[OF LOG] phiHbyA assembly : 803544 mu s
[OF LOG] phiHbyA assembly : 812082 mu s
[OF LOG] phiHbyA assembly : 837916 mu s
[OF LOG] phiHbyA assembly : 840216 mu s
[OF LOG] phiHbyA assembly : 863404 mu s
[OF LOG] phiHbyA assembly : 868661 mu s
[OF LOG] phiHbyA assembly : 853758 mu s
[OF LOG] phiHbyA assembly : 876169 mu s
[OF LOG] phiHbyA assembly : 877271 mu s
[OF LOG] phiHbyA assembly : 862660 mu s
[OF LOG] phiHbyA assembly : 863704 mu s
[OF LOG] phiHbyA assembly : 865268 mu s
[OF LOG] phiHbyA assembly : 870676 mu s
[OF LOG] phiHbyA assembly : 880270 mu s
[OF LOG] phiHbyA assembly : 886833 mu s
[OF LOG] p assembly : 480081 mu s
[OF LOG] p assembly : 480687 mu s
[OF LOG] p assembly : 482001 mu s
[OF LOG] p assembly : 485024 mu s
[OF LOG] p assembly : 486953 mu s
[OF LOG] p assembly : 487670 mu s
[OF LOG] p assembly : 488772 mu s
[OF LOG] p assembly : 491229 mu s
[OF LOG] p assembly : 492190 mu s
[OF LOG] p assembly : 493754 mu s
[OF LOG] p assembly : 495691 mu s
[OF LOG] p assembly : 495708 mu s
[OF LOG] p assembly : 495772 mu s
[OF LOG] p assembly : 497578 mu s
[OF LOG] p assembly : 499914 mu s
[OF LOG] p assembly : 505529 mu s
[OGL LOG][Proc: 0]global_index_init : 14 mu s
[OGL LOG][Proc: 0]global_index_init : 2 mu s
[OGL LOG][Proc: 0]update_host_matrix_data : 216760 mu s
[OGL LOG][Proc: 0]gather_initGuess : 1 mu s
[OGL LOG][Proc: 0]gather_RHS : 0 mu s
[OGL LOG][Proc: 0]gather_global_matrix : 0 mu s
[OGL LOG][Proc: 0]init_precond : 35 mu s
[OGL LOG][Proc: 0]generate_solver : 1 mu s
[OGL LOG][Proc: 0]solve : 4675870 mu s
nonecudaGKOCG:  Solving for p, Initial residual = 1, Final residual = 5.32582e-05, No Iterations 1751
[OF LOG] p solve : 9867307 mu s
[OF LOG] p solve : 9868122 mu s
[OF LOG] p solve : 9868603 mu s
[OF LOG] p solve : 9874450 mu s
[OF LOG] p solve : 9874900 mu s
[OF LOG] p solve : 9874975 mu s
[OF LOG] p solve : 9875896 mu s
[OF LOG] p solve : 9875892 mu s
[OF LOG] p solve : 9876257 mu s
[OF LOG] p solve : 9876352 mu s
[OF LOG] p solve : 9876338 mu s
[OF LOG] p solve : 9876478 mu s
linear solve p 9876763
[OF LOG] p solve : 9876789 mu s
[OF LOG] p solve : 9876996 mu s
[OF LOG] p solve : 9877050 mu s
[OF LOG] p solve : 9877470 mu s
time step continuity errors : sum local = 2.99802e-11, global = -3.23185e-23, cumulative = -5.38224e-22
[OF LOG] u correct : 348483 mu s
[OF LOG] u correct : 348827 mu s
[OF LOG] u correct : 353631 mu s
[OF LOG] u correct : 355471 mu s
[OF LOG] u correct : 356447 mu s
[OF LOG] u correct : 356529 mu s
[OF LOG] u correct : 356876 mu s
[OF LOG] u correct : 356954 mu s
[OF LOG] u correct : 357173 mu s
[OF LOG] u correct : 358315 mu s
[OF LOG] u correct : 363543 mu s
[OF LOG] u correct : 375171 mu s
[OF LOG] u correct : 378954 mu s
[OF LOG] u correct : 379944 mu s
[OF LOG] u correct : 381480 mu s
[OF LOG] u correct : 389449 mu s
ExecutionTime = 1853.41 s  ClockTime = 1867 s

Time = 0.00016

Courant Number mean: 0.00302486 max: 0.0947348
[OF LOG] u assembly : 1281597 mu s
[OF LOG] u assembly : 1286612 mu s
[OF LOG] u assembly : 1307395 mu s
[OF LOG] u assembly : 1308400 mu s
[OF LOG] u assembly : 1308935 mu s
[OF LOG] u assembly : 1312288 mu s
[OF LOG] u assembly : 1313787 mu s
[OF LOG] u assembly : 1316700 mu s
[OF LOG] u assembly : 1319076 mu s
[OF LOG] u assembly : 1321721 mu s
[OF LOG] u assembly : 1326037 mu s
[OF LOG] u assembly : 1335176 mu s
[OF LOG] u assembly : 1336906 mu s
[OF LOG] u assembly : 1338768 mu s
[OF LOG] u assembly : 1340948 mu s
[OF LOG] u assembly : 1357882 mu s
DILUPBiCGStab:  Solving for Ux, Initial residual = 0.0191991, Final residual = 4.61227e-05, No Iterations 5
DILUPBiCGStab:  Solving for Uy, Initial residual = 0.0349606, Final residual = 4.68227e-05, No Iterations 5
DILUPBiCGStab:  Solving for Uz, Initial residual = 0.0595454, Final residual = 0.000290635, No Iterations 5
[OF LOG] u solve : 11523443 mu s
[OF LOG] u solve : 11540662 mu s
[OF LOG] u solve : 11528024 mu s
[OF LOG] u solve : 11568442 mu s
linear solve U 10933635
[OF LOG] u solve : 11515150 mu s
[OF LOG] u solve : 11536583 mu s
[OF LOG] u solve : 11511650 mu s
[OF LOG] u solve : 11563822 mu s
[OF LOG] u solve : 11534355 mu s
[OF LOG] u solve : 11514476 mu s
[OF LOG] u solve : 11539063 mu s
[OF LOG] u solve : 11532426 mu s
[OF LOG] u solve : 11544232 mu s
[OF LOG] u solve : 11493924 mu s
[OF LOG] u solve : 11543459 mu s
[OF LOG] u solve : 11510892 mu s
[OF LOG] phiHbyA assembly : 843530 mu s
[OF LOG] phiHbyA assembly : 878718 mu s
[OF LOG] phiHbyA assembly : 904397 mu s
[OF LOG] phiHbyA assembly : 913819 mu s
[OF LOG] phiHbyA assembly : 921092 mu s
[OF LOG] phiHbyA assembly : 836787 mu s
[OF LOG] phiHbyA assembly : 840735 mu s
[OF LOG] phiHbyA assembly : 852754 mu s
[OF LOG] phiHbyA assembly : 872188 mu s
[OF LOG] phiHbyA assembly : 874430 mu s
[OF LOG] phiHbyA assembly : 880714 mu s
[OF LOG] phiHbyA assembly : 889152 mu s
[OF LOG] phiHbyA assembly : 897407 mu s
[OF LOG] phiHbyA assembly : 900047 mu s
[OF LOG] phiHbyA assembly : 902885 mu s
[OF LOG] phiHbyA assembly : 913435 mu s
[OF LOG] p assembly : 456982 mu s
[OF LOG] p assembly : 480351 mu s
[OF LOG] p assembly : 482726 mu s
[OF LOG] p assembly : 485465 mu s
[OF LOG] p assembly : 486301 mu s
[OF LOG] p assembly : 488259 mu s
[OF LOG] p assembly : 488342 mu s
[OF LOG] p assembly : 490092 mu s
[OF LOG] p assembly : 491243 mu s
[OF LOG] p assembly : 491823 mu s
[OF LOG] p assembly : 492368 mu s
[OF LOG] p assembly : 493950 mu s
[OF LOG] p assembly : 495708 mu s
[OF LOG] p assembly : 496992 mu s
[OF LOG] p assembly : 501065 mu s
[OF LOG] p assembly : 507048 mu s
[OGL LOG][Proc: 0]global_index_init : 17 mu s
[OGL LOG][Proc: 0]global_index_init : 2 mu s
[OGL LOG][Proc: 0]update_host_matrix_data : 215766 mu s
[OGL LOG][Proc: 0]gather_initGuess : 1 mu s
[OGL LOG][Proc: 0]gather_RHS : 0 mu s
[OGL LOG][Proc: 0]gather_global_matrix : 0 mu s
[OGL LOG][Proc: 0]init_precond : 31 mu s
[OGL LOG][Proc: 0]generate_solver : 1 mu s
[OGL LOG][Proc: 0]solve : 4686180 mu s
nonecudaGKOCG:  Solving for p, Initial residual = 1, Final residual = 7.89845e-05, No Iterations 1751
[OF LOG] p solve : 9872940 mu s
[OF LOG] p solve : 9873714 mu s
[OF LOG] p solve : 9874032 mu s
[OF LOG] p solve : 9874091 mu s
[OF LOG] p solve : 9874210 mu s
[OF LOG] p solve : 9874531 mu s
[OF LOG] p solve : 9874696 mu s
[OF LOG] p solve : 9874761 mu s
[OF LOG] p solve : 9875825 mu s
[OF LOG] p solve : 9878201 mu s
linear solve p 9878250
[OF LOG] p solve : 9878280 mu s
[OF LOG] p solve : 9878750 mu s
[OF LOG] p solve : 9879216 mu s
[OF LOG] p solve : 9879478 mu s
[OF LOG] p solve : 9880137 mu s
[OF LOG] p solve : 9880314 mu s
time step continuity errors : sum local = 5.03332e-11, global = -1.44841e-22, cumulative = -6.83065e-22
[OF LOG] u correct : 349506 mu s
[OF LOG] u correct : 349484 mu s
[OF LOG] u correct : 351110 mu s
[OF LOG] u correct : 352052 mu s
[OF LOG] u correct : 352059 mu s
[OF LOG] u correct : 352519 mu s
[OF LOG] u correct : 354581 mu s
[OF LOG] u correct : 355543 mu s
[OF LOG] u correct : 356610 mu s
[OF LOG] u correct : 356707 mu s
[OF LOG] u correct : 357093 mu s
[OF LOG] u correct : 358372 mu s
[OF LOG] u correct : 358129 mu s
[OF LOG] u correct : 359102 mu s
[OF LOG] u correct : 361251 mu s
[OF LOG] u correct : 390254 mu s
[OF LOG] phiHbyA assembly : 807147 mu s
[OF LOG] phiHbyA assembly : 840487 mu s
[OF LOG] phiHbyA assembly : 866349 mu s
[OF LOG] phiHbyA assembly : 869499 mu s
[OF LOG] phiHbyA assembly : 880837 mu s
[OF LOG] phiHbyA assembly : 799979 mu s
[OF LOG] phiHbyA assembly : 811879 mu s
[OF LOG] phiHbyA assembly : 841281 mu s
[OF LOG] phiHbyA assembly : 838808 mu s
[OF LOG] phiHbyA assembly : 843478 mu s
[OF LOG] phiHbyA assembly : 852071 mu s
[OF LOG] phiHbyA assembly : 857541 mu s
[OF LOG] phiHbyA assembly : 864103 mu s
[OF LOG] phiHbyA assembly : 866812 mu s
[OF LOG] phiHbyA assembly : 865522 mu s
[OF LOG] phiHbyA assembly : 877882 mu s
[OF LOG] p assembly : 479941 mu s
[OF LOG] p assembly : 480771 mu s
[OF LOG] p assembly : 482816 mu s
[OF LOG] p assembly : 484383 mu s
[OF LOG] p assembly : 488653 mu s
[OF LOG] p assembly : 489199 mu s
[OF LOG] p assembly : 489725 mu s
[OF LOG] p assembly : 490291 mu s
[OF LOG] p assembly : 492654 mu s
[OF LOG] p assembly : 492876 mu s
[OF LOG] p assembly : 494743 mu s
[OF LOG] p assembly : 495754 mu s
[OF LOG] p assembly : 497002 mu s
[OF LOG] p assembly : 497398 mu s
[OF LOG] p assembly : 500647 mu s
[OF LOG] p assembly : 506220 mu s
[OGL LOG][Proc: 0]global_index_init : 21 mu s
[OGL LOG][Proc: 0]global_index_init : 2 mu s
[OGL LOG][Proc: 0]update_host_matrix_data : 215632 mu s
[OGL LOG][Proc: 0]gather_initGuess : 1 mu s
[OGL LOG][Proc: 0]gather_RHS : 0 mu s
[OGL LOG][Proc: 0]gather_global_matrix : 0 mu s
[OGL LOG][Proc: 0]init_precond : 44 mu s
[OGL LOG][Proc: 0]generate_solver : 0 mu s
[OGL LOG][Proc: 0]solve : 4859319 mu s
nonecudaGKOCG:  Solving for p, Initial residual = 1, Final residual = 5.33054e-05, No Iterations 1751
[OF LOG] p solve : 10044442 mu s
[OF LOG] p solve : 10045719 mu s
[OF LOG] p solve : 10046118 mu s
[OF LOG] p solve : 10050288 mu s
[OF LOG] p solve : 10051214 mu s
[OF LOG] p solve : 10051265 mu s
[OF LOG] p solve : 10051325 mu s
[OF LOG] p solve : 10051583 mu s
[OF LOG] p solve : 10051694 mu s
[OF LOG] p solve : 10052466 mu s
[OF LOG] p solve : 10052568 mu s
[OF LOG] p solve : 10052577 mu s
[OF LOG] p solve : 10052653 mu s
linear solve p 10052998
[OF LOG] p solve : 10053023 mu s
[OF LOG] p solve : 10053385 mu s
[OF LOG] p solve : 10053406 mu s
time step continuity errors : sum local = 3.00675e-11, global = -2.62066e-23, cumulative = -7.09271e-22
[OF LOG] u correct : 347356 mu s
[OF LOG] u correct : 348409 mu s
[OF LOG] u correct : 349936 mu s
[OF LOG] u correct : 350231 mu s
[OF LOG] u correct : 351079 mu s
[OF LOG] u correct : 351788 mu s
[OF LOG] u correct : 358202 mu s
[OF LOG] u correct : 359399 mu s
[OF LOG] u correct : 362601 mu s
[OF LOG] u correct : 363760 mu s
[OF LOG] u correct : 365655 mu s
[OF LOG] u correct : 382820 mu s
[OF LOG] u correct : 383159 mu s
[OF LOG] u correct : 383535 mu s
[OF LOG] u correct : 389723 mu s
[OF LOG] u correct : 390188 mu s
ExecutionTime = 1891.64 s  ClockTime = 1906 s

Time = 0.00018

Courant Number mean: 0.00322097 max: 0.0950954
[OF LOG] u assembly : 1282796 mu s
[OF LOG] u assembly : 1286417 mu s
[OF LOG] u assembly : 1308137 mu s
[OF LOG] u assembly : 1309610 mu s
[OF LOG] u assembly : 1310260 mu s
[OF LOG] u assembly : 1310254 mu s
[OF LOG] u assembly : 1310981 mu s
[OF LOG] u assembly : 1317677 mu s
[OF LOG] u assembly : 1320989 mu s
[OF LOG] u assembly : 1330957 mu s
[OF LOG] u assembly : 1335863 mu s
[OF LOG] u assembly : 1337718 mu s
[OF LOG] u assembly : 1341663 mu s
[OF LOG] u assembly : 1344194 mu s
[OF LOG] u assembly : 1348405 mu s
[OF LOG] u assembly : 1355331 mu s
DILUPBiCGStab:  Solving for Ux, Initial residual = 0.0170305, Final residual = 3.4869e-05, No Iterations 5
DILUPBiCGStab:  Solving for Uy, Initial residual = 0.0303771, Final residual = 4.18141e-05, No Iterations 5
DILUPBiCGStab:  Solving for Uz, Initial residual = 0.0528382, Final residual = 0.000228163, No Iterations 5
[OF LOG] u solve : 11588699 mu s
[OF LOG] u solve : 11523287 mu s
[OF LOG] u solve : 11585479 mu s
linear solve U 10952417
[OF LOG] u solve : 11561109 mu s
[OF LOG] u solve : 11562607 mu s
[OF LOG] u solve : 11564817 mu s
[OF LOG] u solve : 11537168 mu s
[OF LOG] u solve : 11552115 mu s
[OF LOG] u solve : 11517994 mu s
[OF LOG] u solve : 11531676 mu s
[OF LOG] u solve : 11563176 mu s
[OF LOG] u solve : 11547611 mu s
[OF LOG] u solve : 11560955 mu s
[OF LOG] u solve : 11569209 mu s
[OF LOG] u solve : 11534779 mu s
[OF LOG] u solve : 11541798 mu s
[OF LOG] phiHbyA assembly : 834821 mu s
[OF LOG] phiHbyA assembly : 841117 mu s
[OF LOG] phiHbyA assembly : 847859 mu s
[OF LOG] phiHbyA assembly : 852763 mu s
[OF LOG] phiHbyA assembly : 872519 mu s
[OF LOG] phiHbyA assembly : 874594 mu s
[OF LOG] phiHbyA assembly : 891259 mu s
[OF LOG] phiHbyA assembly : 901587 mu s
[OF LOG] phiHbyA assembly : 904251 mu s
[OF LOG] phiHbyA assembly : 902715 mu s
[OF LOG] phiHbyA assembly : 903982 mu s
[OF LOG] phiHbyA assembly : 911979 mu s
[OF LOG] phiHbyA assembly : 910083 mu s
[OF LOG] phiHbyA assembly : 913978 mu s
[OF LOG] phiHbyA assembly : 923971 mu s
[OF LOG] phiHbyA assembly : 917356 mu s
[OF LOG] p assembly : 461863 mu s
[OF LOG] p assembly : 481338 mu s
[OF LOG] p assembly : 482271 mu s
[OF LOG] p assembly : 484235 mu s
[OF LOG] p assembly : 485722 mu s
[OF LOG] p assembly : 486423 mu s
[OF LOG] p assembly : 488074 mu s
[OF LOG] p assembly : 488080 mu s
[OF LOG] p assembly : 490723 mu s
[OF LOG] p assembly : 491391 mu s
[OF LOG] p assembly : 492082 mu s
[OF LOG] p assembly : 495134 mu s
[OF LOG] p assembly : 495687 mu s
[OF LOG] p assembly : 496678 mu s
[OF LOG] p assembly : 499508 mu s
[OF LOG] p assembly : 503714 mu s
[OGL LOG][Proc: 0]global_index_init : 15 mu s
[OGL LOG][Proc: 0]global_index_init : 2 mu s
[OGL LOG][Proc: 0]update_host_matrix_data : 216326 mu s
[OGL LOG][Proc: 0]gather_initGuess : 1 mu s
[OGL LOG][Proc: 0]gather_RHS : 0 mu s
[OGL LOG][Proc: 0]gather_global_matrix : 0 mu s
[OGL LOG][Proc: 0]init_precond : 33 mu s
[OGL LOG][Proc: 0]generate_solver : 1 mu s
[OGL LOG][Proc: 0]solve : 4690455 mu s
nonecudaGKOCG:  Solving for p, Initial residual = 1, Final residual = 6.26764e-05, No Iterations 1751
[OF LOG] p solve : 9879145 mu s
[OF LOG] p solve : 9879244 mu s
[OF LOG] p solve : 9879839 mu s
[OF LOG] p solve : 9879902 mu s
[OF LOG] p solve : 9880420 mu s
[OF LOG] p solve : 9882296 mu s
linear solve p 9882361
[OF LOG] p solve : 9882392 mu s
[OF LOG] p solve : 9882842 mu s
[OF LOG] p solve : 9883581 mu s
[OF LOG] p solve : 9884167 mu s
[OF LOG] p solve : 9884366 mu s
[OF LOG] p solve : 9884546 mu s
[OF LOG] p solve : 9884695 mu s
[OF LOG] p solve : 9884767 mu s
[OF LOG] p solve : 9885267 mu s
[OF LOG] p solve : 9885279 mu s
time step continuity errors : sum local = 3.88166e-11, global = -2.6347e-23, cumulative = -7.35618e-22
[OF LOG] u correct : 347590 mu s
[OF LOG] u correct : 348930 mu s
[OF LOG] u correct : 350930 mu s
[OF LOG] u correct : 351283 mu s
[OF LOG] u correct : 351782 mu s
[OF LOG] u correct : 352791 mu s
[OF LOG] u correct : 353296 mu s
[OF LOG] u correct : 354231 mu s
[OF LOG] u correct : 356007 mu s
[OF LOG] u correct : 356165 mu s
[OF LOG] u correct : 357449 mu s
[OF LOG] u correct : 358192 mu s
[OF LOG] u correct : 358555 mu s
[OF LOG] u correct : 358831 mu s
[OF LOG] u correct : 360409 mu s
[OF LOG] u correct : 390092 mu s
[OF LOG] phiHbyA assembly : 805600 mu s
[OF LOG] phiHbyA assembly : 841543 mu s
[OF LOG] phiHbyA assembly : 866380 mu s
[OF LOG] phiHbyA assembly : 870737 mu s
[OF LOG] phiHbyA assembly : 885496 mu s
[OF LOG] phiHbyA assembly : 802499 mu s
[OF LOG] phiHbyA assembly : 803069 mu s
[OF LOG] phiHbyA assembly : 838411 mu s
[OF LOG] phiHbyA assembly : 843315 mu s
[OF LOG] phiHbyA assembly : 841923 mu s
[OF LOG] phiHbyA assembly : 854756 mu s
[OF LOG] phiHbyA assembly : 860209 mu s
[OF LOG] phiHbyA assembly : 864095 mu s
[OF LOG] phiHbyA assembly : 865465 mu s
[OF LOG] phiHbyA assembly : 869315 mu s
[OF LOG] phiHbyA assembly : 880215 mu s
[OF LOG] p assembly : 480073 mu s
[OF LOG] p assembly : 481383 mu s
[OF LOG] p assembly : 482962 mu s
[OF LOG] p assembly : 485093 mu s
[OF LOG] p assembly : 488109 mu s
[OF LOG] p assembly : 489306 mu s
[OF LOG] p assembly : 489792 mu s
[OF LOG] p assembly : 491625 mu s
[OF LOG] p assembly : 492779 mu s
[OF LOG] p assembly : 493067 mu s
[OF LOG] p assembly : 495513 mu s
[OF LOG] p assembly : 495670 mu s
[OF LOG] p assembly : 497199 mu s
[OF LOG] p assembly : 497210 mu s
[OF LOG] p assembly : 499908 mu s
[OF LOG] p assembly : 505855 mu s
[OGL LOG][Proc: 0]global_index_init : 13 mu s
[OGL LOG][Proc: 0]global_index_init : 2 mu s
[OGL LOG][Proc: 0]update_host_matrix_data : 216576 mu s
[OGL LOG][Proc: 0]gather_initGuess : 1 mu s
[OGL LOG][Proc: 0]gather_RHS : 0 mu s
[OGL LOG][Proc: 0]gather_global_matrix : 0 mu s
[OGL LOG][Proc: 0]init_precond : 31 mu s
[OGL LOG][Proc: 0]generate_solver : 0 mu s
[OGL LOG][Proc: 0]solve : 4693316 mu s
nonecudaGKOCG:  Solving for p, Initial residual = 1, Final residual = 5.32462e-05, No Iterations 1751
[OF LOG] p solve : 9880703 mu s
[OF LOG] p solve : 9881810 mu s
[OF LOG] p solve : 9882927 mu s
[OF LOG] p solve : 9886344 mu s
[OF LOG] p solve : 9887138 mu s
[OF LOG] p solve : 9887348 mu s
[OF LOG] p solve : 9887474 mu s
[OF LOG] p solve : 9887800 mu s
[OF LOG] p solve : 9887931 mu s
[OF LOG] p solve : 9889266 mu s
[OF LOG] p solve : 9889397 mu s
[OF LOG] p solve : 9889517 mu s
[OF LOG] p solve : 9889585 mu s
linear solve p 9889668
[OF LOG] p solve : 9889693 mu s
[OF LOG] p solve : 9890163 mu s
[OF LOG] p solve : 9890180 mu s
time step continuity errors : sum local = 2.99017e-11, global = -4.45941e-23, cumulative = -7.80212e-22
[OF LOG] u correct : 348572 mu s
[OF LOG] u correct : 349860 mu s
[OF LOG] u correct : 353702 mu s
[OF LOG] u correct : 355582 mu s
[OF LOG] u correct : 356681 mu s
[OF LOG] u correct : 357573 mu s
[OF LOG] u correct : 357897 mu s
[OF LOG] u correct : 358961 mu s
[OF LOG] u correct : 364748 mu s
[OF LOG] u correct : 365076 mu s
[OF LOG] u correct : 376293 mu s
[OF LOG] u correct : 380352 mu s
[OF LOG] u correct : 380677 mu s
[OF LOG] u correct : 381833 mu s
[OF LOG] u correct : 382382 mu s
[OF LOG] u correct : 388967 mu s
ExecutionTime = 1929.59 s  ClockTime = 1945 s

Time = 0.0002

Courant Number mean: 0.00340237 max: 0.0953888
[OF LOG] u assembly : 1280869 mu s
[OF LOG] u assembly : 1284193 mu s
[OF LOG] u assembly : 1307496 mu s
[OF LOG] u assembly : 1307963 mu s
[OF LOG] u assembly : 1308726 mu s
[OF LOG] u assembly : 1308906 mu s
[OF LOG] u assembly : 1310109 mu s
[OF LOG] u assembly : 1316052 mu s
[OF LOG] u assembly : 1320450 mu s
[OF LOG] u assembly : 1321617 mu s
[OF LOG] u assembly : 1323799 mu s
[OF LOG] u assembly : 1332554 mu s
[OF LOG] u assembly : 1335690 mu s
[OF LOG] u assembly : 1338529 mu s
[OF LOG] u assembly : 1340094 mu s
[OF LOG] u assembly : 1354630 mu s
DILUPBiCGStab:  Solving for Ux, Initial residual = 0.0153289, Final residual = 2.78232e-05, No Iterations 5
DILUPBiCGStab:  Solving for Uy, Initial residual = 0.0268461, Final residual = 3.10259e-05, No Iterations 5
DILUPBiCGStab:  Solving for Uz, Initial residual = 0.0477932, Final residual = 0.000167328, No Iterations 5
[OF LOG] u solve : 11585337 mu s
[OF LOG] u solve : 11614290 mu s
[OF LOG] u solve : 11556786 mu s
[OF LOG] u solve : 11587409 mu s
[OF LOG] u solve : 11611460 mu s
[OF LOG] u solve : 11587366 mu s
[OF LOG] u solve : 11560504 mu s
[OF LOG] u solve : 11590653 mu s
linear solve U 10986223
[OF LOG] u solve : 11569323 mu s
[OF LOG] u solve : 11578469 mu s
[OF LOG] u solve : 11586293 mu s
[OF LOG] u solve : 11582022 mu s
[OF LOG] u solve : 11567076 mu s
[OF LOG] u solve : 11581191 mu s
[OF LOG] u solve : 11548309 mu s
[OF LOG] u solve : 11595821 mu s
[OF LOG] phiHbyA assembly : 843556 mu s
[OF LOG] phiHbyA assembly : 877796 mu s
[OF LOG] phiHbyA assembly : 904574 mu s
[OF LOG] phiHbyA assembly : 904815 mu s
[OF LOG] phiHbyA assembly : 921051 mu s
[OF LOG] phiHbyA assembly : 837293 mu s
[OF LOG] phiHbyA assembly : 839363 mu s
[OF LOG] phiHbyA assembly : 841107 mu s
[OF LOG] phiHbyA assembly : 852727 mu s
[OF LOG] phiHbyA assembly : 873685 mu s
[OF LOG] phiHbyA assembly : 875462 mu s
[OF LOG] phiHbyA assembly : 881884 mu s
[OF LOG] phiHbyA assembly : 895207 mu s
[OF LOG] phiHbyA assembly : 899826 mu s
[OF LOG] phiHbyA assembly : 904052 mu s
[OF LOG] phiHbyA assembly : 913243 mu s
[OF LOG] p assembly : 455878 mu s
[OF LOG] p assembly : 459515 mu s
[OF LOG] p assembly : 480962 mu s
[OF LOG] p assembly : 483325 mu s
[OF LOG] p assembly : 484728 mu s
[OF LOG] p assembly : 485301 mu s
[OF LOG] p assembly : 487430 mu s
[OF LOG] p assembly : 487622 mu s
[OF LOG] p assembly : 488600 mu s
[OF LOG] p assembly : 489117 mu s
[OF LOG] p assembly : 491146 mu s
[OF LOG] p assembly : 492969 mu s
[OF LOG] p assembly : 495316 mu s
[OF LOG] p assembly : 499580 mu s
[OF LOG] p assembly : 501022 mu s
[OF LOG] p assembly : 505091 mu s
[OGL LOG][Proc: 0]global_index_init : 14 mu s
[OGL LOG][Proc: 0]global_index_init : 2 mu s
[OGL LOG][Proc: 0]update_host_matrix_data : 216280 mu s
[OGL LOG][Proc: 0]gather_initGuess : 1 mu s
[OGL LOG][Proc: 0]gather_RHS : 0 mu s
[OGL LOG][Proc: 0]gather_global_matrix : 0 mu s
[OGL LOG][Proc: 0]init_precond : 32 mu s
[OGL LOG][Proc: 0]generate_solver : 1 mu s
[OGL LOG][Proc: 0]solve : 4510955 mu s
nonecudaGKOCG:  Solving for p, Initial residual = 1, Final residual = 9.37018e-05, No Iterations 1681
[OF LOG] p solve : 9700682 mu s
[OF LOG] p solve : 9700760 mu s
[OF LOG] p solve : 9701580 mu s
[OF LOG] p solve : 9701668 mu s
[OF LOG] p solve : 9702040 mu s
[OF LOG] p solve : 9704241 mu s
linear solve p 9704417
[OF LOG] p solve : 9704448 mu s
[OF LOG] p solve : 9704742 mu s
[OF LOG] p solve : 9704908 mu s
[OF LOG] p solve : 9705564 mu s
[OF LOG] p solve : 9705771 mu s
[OF LOG] p solve : 9705794 mu s
[OF LOG] p solve : 9706143 mu s
[OF LOG] p solve : 9706150 mu s
[OF LOG] p solve : 9706243 mu s
[OF LOG] p solve : 9706359 mu s
time step continuity errors : sum local = 5.65354e-11, global = -2.64963e-23, cumulative = -8.06708e-22
[OF LOG] u correct : 349367 mu s
[OF LOG] u correct : 349709 mu s
[OF LOG] u correct : 351750 mu s
[OF LOG] u correct : 351815 mu s
[OF LOG] u correct : 352587 mu s
[OF LOG] u correct : 353080 mu s
[OF LOG] u correct : 354324 mu s
[OF LOG] u correct : 354468 mu s
[OF LOG] u correct : 355749 mu s
[OF LOG] u correct : 356596 mu s
[OF LOG] u correct : 357141 mu s
[OF LOG] u correct : 357980 mu s
[OF LOG] u correct : 357727 mu s
[OF LOG] u correct : 358375 mu s
[OF LOG] u correct : 360623 mu s
[OF LOG] u correct : 381863 mu s
[OF LOG] phiHbyA assembly : 799738 mu s
[OF LOG] phiHbyA assembly : 802157 mu s
[OF LOG] phiHbyA assembly : 810807 mu s
[OF LOG] phiHbyA assembly : 839854 mu s
[OF LOG] phiHbyA assembly : 840582 mu s
[OF LOG] phiHbyA assembly : 862705 mu s
[OF LOG] phiHbyA assembly : 869005 mu s
[OF LOG] phiHbyA assembly : 855156 mu s
[OF LOG] phiHbyA assembly : 877509 mu s
[...]
[OGL LOG][Proc: 0]gather_global_matrix : 0 mu s
[OGL LOG][Proc: 0]init_precond : 36 mu s
[OGL LOG][Proc: 0]generate_solver : 1 mu s
[OGL LOG][Proc: 0]solve : 190973 mu s
nonecudaGKOCG:  Solving for p, Initial residual = 1, Final residual = 5.4138e-05, No Iterations 776
[OF LOG] p solve : 247186 mu s
[OF LOG] p solve : 247233 mu s
linear solve p 247270
[OF LOG] p solve : 247289 mu s
[OF LOG] p solve : 247278 mu s
[OF LOG] p solve : 247298 mu s
[OF LOG] p solve : 247326 mu s
[OF LOG] p solve : 247326 mu s
[OF LOG] p solve : 247328 mu s
time step continuity errors : sum local = 6.48977e-10, global = -1.18338e-21, cumulative = -2.06292e-21
[OF LOG] u correct : 4599 mu s
[OF LOG] u correct : 4615 mu s
[OF LOG] u correct : 4627 mu s
[OF LOG] u correct : 4652 mu s
[OF LOG] u correct : 4626 mu s
[OF LOG] u correct : 4635 mu s
[OF LOG] u correct : 4656 mu s
[OF LOG] u correct : 4680 mu s
[OF LOG] phiHbyA assembly : 9008 mu s
[OF LOG] phiHbyA assembly : 9061 mu s
[OF LOG] phiHbyA assembly : 9236 mu s
[OF LOG] phiHbyA assembly : 9394 mu s
[OF LOG] phiHbyA assembly : 9294 mu s
[OF LOG] phiHbyA assembly : 9460 mu s
[OF LOG] phiHbyA assembly : 9394 mu s
[OF LOG] phiHbyA assembly : 9581 mu s
[OF LOG] p assembly : 5036 mu s
[OF LOG] p assembly : 5090 mu s
[OF LOG] p assembly : 5091 mu s
[OF LOG] p assembly : 5104 mu s
[OF LOG] p assembly : 5116 mu s
[OF LOG] p assembly : 5208 mu s
[OF LOG] p assembly : 5251 mu s
[OF LOG] p assembly : 5270 mu s
[OGL LOG][Proc: 0]global_index_init : 8 mu s
[OGL LOG][Proc: 0]global_index_init : 2 mu s
[OGL LOG][Proc: 0]update_host_matrix_data : 3690 mu s
[OGL LOG][Proc: 0]gather_initGuess : 0 mu s
[OGL LOG][Proc: 0]gather_RHS : 0 mu s
[OGL LOG][Proc: 0]gather_global_matrix : 0 mu s
[OGL LOG][Proc: 0]init_precond : 38 mu s
[OGL LOG][Proc: 0]generate_solver : 1 mu s
[OGL LOG][Proc: 0]solve : 190080 mu s
nonecudaGKOCG:  Solving for p, Initial residual = 1, Final residual = 4.37672e-05, No Iterations 776
[OF LOG] p solve : 245915 mu s
linear solve p 246038
[OF LOG] p solve : 246056 mu s
[OF LOG] p solve : 246062 mu s
[OF LOG] p solve : 246094 mu s
[OF LOG] p solve : 246106 mu s
[OF LOG] p solve : 246139 mu s
[OF LOG] p solve : 246142 mu s
[OF LOG] p solve : 246136 mu s
time step continuity errors : sum local = 5.191e-10, global = 3.33844e-22, cumulative = -1.72907e-21
[OF LOG] u correct : 4639 mu s
[OF LOG] u correct : 4671 mu s
[OF LOG] u correct : 4677 mu s
[OF LOG] u correct : 4684 mu s
[OF LOG] u correct : 4646 mu s
[OF LOG] u correct : 4690 mu s
[OF LOG] u correct : 4705 mu s
[OF LOG] u correct : 4722 mu s
ExecutionTime = 7.4 s  ClockTime = 8 s

Time = 0.0007

Courant Number mean: 0.00556496 max: 0.0864549
[OF LOG] u assembly : 14127 mu s
[OF LOG] u assembly : 14236 mu s
[OF LOG] u assembly : 14371 mu s
[OF LOG] u assembly : 14545 mu s
[OF LOG] u assembly : 14613 mu s
[OF LOG] u assembly : 14624 mu s
[OF LOG] u assembly : 14987 mu s
[OF LOG] u assembly : 14981 mu s
DILUPBiCGStab:  Solving for Ux, Initial residual = 0.0277685, Final residual = 1.72017e-07, No Iterations 5
DILUPBiCGStab:  Solving for Uy, Initial residual = 0.0392332, Final residual = 1.13688e-07, No Iterations 5
DILUPBiCGStab:  Solving for Uz, Initial residual = 0.0676163, Final residual = 3.06687e-07, No Iterations 5
[OF LOG] u solve : 128568 mu s
[OF LOG] u solve : 129037 mu s
[OF LOG] u solve : 128633 mu s
linear solve U 121312
[OF LOG] u solve : 128198 mu s
[OF LOG] u solve : 128799 mu s
[OF LOG] u solve : 128922 mu s
[OF LOG] u solve : 128543 mu s
[OF LOG] u solve : 128187 mu s
[OF LOG] phiHbyA assembly : 9415 mu s
[OF LOG] phiHbyA assembly : 9529 mu s
[OF LOG] phiHbyA assembly : 9672 mu s
[OF LOG] phiHbyA assembly : 9834 mu s
[OF LOG] phiHbyA assembly : 9922 mu s
[OF LOG] phiHbyA assembly : 9789 mu s
[OF LOG] phiHbyA assembly : 9823 mu s
[OF LOG] phiHbyA assembly : 10156 mu s
[OF LOG] p assembly : 4959 mu s
[OF LOG] p assembly : 5169 mu s
[OF LOG] p assembly : 5117 mu s
[OF LOG] p assembly : 5136 mu s
[OF LOG] p assembly : 5225 mu s
[OF LOG] p assembly : 5298 mu s
[OF LOG] p assembly : 5328 mu s
[OF LOG] p assembly : 5325 mu s
[OGL LOG][Proc: 0]global_index_init : 7 mu s
[OGL LOG][Proc: 0]global_index_init : 1 mu s
[OGL LOG][Proc: 0]update_host_matrix_data : 3774 mu s
[OGL LOG][Proc: 0]gather_initGuess : 1 mu s
[OGL LOG][Proc: 0]gather_RHS : 0 mu s
[OGL LOG][Proc: 0]gather_global_matrix : 0 mu s
[OGL LOG][Proc: 0]init_precond : 44 mu s
[OGL LOG][Proc: 0]generate_solver : 1 mu s
[OGL LOG][Proc: 0]solve : 193432 mu s
nonecudaGKOCG:  Solving for p, Initial residual = 1, Final residual = 5.54918e-05, No Iterations 776
[OF LOG] p solve : 248912 mu s
linear solve p 248899
[OF LOG] p solve : 248918 mu s
[OF LOG] p solve : 248953 mu s
[OF LOG] p solve : 248982 mu s
[OF LOG] p solve : 248994 mu s
[OF LOG] p solve : 249026 mu s
[OF LOG] p solve : 249024 mu s
[OF LOG] p solve : 249026 mu s
time step continuity errors : sum local = 6.67892e-10, global = 6.73831e-22, cumulative = -1.05524e-21
[OF LOG] u correct : 4616 mu s
[OF LOG] u correct : 4616 mu s
[OF LOG] u correct : 4652 mu s
[OF LOG] u correct : 4657 mu s
[OF LOG] u correct : 4748 mu s
[OF LOG] u correct : 4787 mu s
[OF LOG] u correct : 4808 mu s
[OF LOG] u correct : 4805 mu s
[OF LOG] phiHbyA assembly : 9005 mu s
[OF LOG] phiHbyA assembly : 9150 mu s
[OF LOG] phiHbyA assembly : 9187 mu s
[OF LOG] phiHbyA assembly : 9361 mu s
[OF LOG] phiHbyA assembly : 9284 mu s
[OF LOG] phiHbyA assembly : 9226 mu s
[OF LOG] phiHbyA assembly : 9411 mu s
[OF LOG] phiHbyA assembly : 9566 mu s
[OF LOG] p assembly : 5077 mu s
[OF LOG] p assembly : 5092 mu s
[OF LOG] p assembly : 5121 mu s
[OF LOG] p assembly : 5150 mu s
[OF LOG] p assembly : 5177 mu s
[OF LOG] p assembly : 5244 mu s
[OF LOG] p assembly : 5259 mu s
[OF LOG] p assembly : 5312 mu s
[OGL LOG][Proc: 0]global_index_init : 7 mu s
[OGL LOG][Proc: 0]global_index_init : 1 mu s
[OGL LOG][Proc: 0]update_host_matrix_data : 3595 mu s
[OGL LOG][Proc: 0]gather_initGuess : 1 mu s
[OGL LOG][Proc: 0]gather_RHS : 0 mu s
[OGL LOG][Proc: 0]gather_global_matrix : 0 mu s
[OGL LOG][Proc: 0]init_precond : 31 mu s
[OGL LOG][Proc: 0]generate_solver : 1 mu s
[OGL LOG][Proc: 0]solve : 191675 mu s
nonecudaGKOCG:  Solving for p, Initial residual = 1, Final residual = 4.63848e-05, No Iterations 776
linear solve p 247711
[OF LOG] p solve : 247732 mu s
[OF LOG] p solve : 247734 mu s
[OF LOG] p solve : 247754 mu s
[OF LOG] p solve : 247772 mu s
[OF LOG] p solve : 247802 mu s
[OF LOG] p solve : 247821 mu s
[OF LOG] p solve : 247823 mu s
[OF LOG] p solve : 247810 mu s
time step continuity errors : sum local = 5.54504e-10, global = 5.31733e-22, cumulative = -5.2351e-22
[OF LOG] u correct : 4633 mu s
[OF LOG] u correct : 4697 mu s
[OF LOG] u correct : 4638 mu s
[OF LOG] u correct : 4668 mu s
[OF LOG] u correct : 4745 mu s
[OF LOG] u correct : 4664 mu s
[OF LOG] u correct : 4692 mu s
[OF LOG] u correct : 4771 mu s
ExecutionTime = 8.1 s  ClockTime = 8 s

Time = 0.0008

Courant Number mean: 0.00596229 max: 0.0875193
[OF LOG] u assembly : 14102 mu s
[OF LOG] u assembly : 14135 mu s
[OF LOG] u assembly : 14279 mu s
[OF LOG] u assembly : 14482 mu s
[OF LOG] u assembly : 14506 mu s
[OF LOG] u assembly : 14733 mu s
[OF LOG] u assembly : 15050 mu s
[OF LOG] u assembly : 15156 mu s
DILUPBiCGStab:  Solving for Ux, Initial residual = 0.0236261, Final residual = 1.40102e-07, No Iterations 5
DILUPBiCGStab:  Solving for Uy, Initial residual = 0.0331323, Final residual = 8.8106e-08, No Iterations 5
DILUPBiCGStab:  Solving for Uz, Initial residual = 0.0587927, Final residual = 2.62279e-07, No Iterations 5
linear solve U 122045
[OF LOG] u solve : 129525 mu s
[OF LOG] u solve : 129902 mu s
[OF LOG] u solve : 129279 mu s
[OF LOG] u solve : 128856 mu s
[OF LOG] u solve : 129716 mu s
[OF LOG] u solve : 129847 mu s
[OF LOG] u solve : 129489 mu s
[OF LOG] u solve : 128943 mu s
[OF LOG] phiHbyA assembly : 9471 mu s
[OF LOG] phiHbyA assembly : 9636 mu s
[OF LOG] phiHbyA assembly : 9615 mu s
[OF LOG] phiHbyA assembly : 9650 mu s
[OF LOG] phiHbyA assembly : 9675 mu s
[OF LOG] phiHbyA assembly : 9846 mu s
[OF LOG] phiHbyA assembly : 9914 mu s
[OF LOG] phiHbyA assembly : 10102 mu s
[OF LOG] p assembly : 5058 mu s
[OF LOG] p assembly : 5122 mu s
[OF LOG] p assembly : 5115 mu s
[OF LOG] p assembly : 5190 mu s
[OF LOG] p assembly : 5190 mu s
[OF LOG] p assembly : 5250 mu s
[OF LOG] p assembly : 5272 mu s
[OF LOG] p assembly : 5338 mu s
[OGL LOG][Proc: 0]global_index_init : 8 mu s
[OGL LOG][Proc: 0]global_index_init : 1 mu s
[OGL LOG][Proc: 0]update_host_matrix_data : 3777 mu s
[OGL LOG][Proc: 0]gather_initGuess : 1 mu s
[OGL LOG][Proc: 0]gather_RHS : 0 mu s
[OGL LOG][Proc: 0]gather_global_matrix : 0 mu s
[OGL LOG][Proc: 0]init_precond : 35 mu s
[OGL LOG][Proc: 0]generate_solver : 0 mu s
[OGL LOG][Proc: 0]solve : 191317 mu s
nonecudaGKOCG:  Solving for p, Initial residual = 1, Final residual = 5.67165e-05, No Iterations 776
[OF LOG] p solve : 246656 mu s
[OF LOG] p solve : 246711 mu s
[OF LOG] p solve : 246748 mu s
linear solve p 246733
[OF LOG] p solve : 246752 mu s
[OF LOG] p solve : 246773 mu s
[OF LOG] p solve : 246797 mu s
[OF LOG] p solve : 246798 mu s
[OF LOG] p solve : 246797 mu s
time step continuity errors : sum local = 6.85543e-10, global = 4.79535e-23, cumulative = -4.75556e-22
[OF LOG] u correct : 4578 mu s
[OF LOG] u correct : 4640 mu s
[OF LOG] u correct : 4586 mu s
[OF LOG] u correct : 4653 mu s
[OF LOG] u correct : 4657 mu s
[OF LOG] u correct : 4680 mu s
[OF LOG] u correct : 4686 mu s
[OF LOG] u correct : 4720 mu s
[OF LOG] phiHbyA assembly : 8939 mu s
[OF LOG] phiHbyA assembly : 9129 mu s
[OF LOG] phiHbyA assembly : 9112 mu s
[OF LOG] phiHbyA assembly : 9145 mu s
[OF LOG] phiHbyA assembly : 9220 mu s
[OF LOG] phiHbyA assembly : 9391 mu s
[OF LOG] phiHbyA assembly : 9445 mu s
[OF LOG] phiHbyA assembly : 9507 mu s
[OF LOG] p assembly : 5084 mu s
[OF LOG] p assembly : 5073 mu s
[OF LOG] p assembly : 5082 mu s
[OF LOG] p assembly : 5140 mu s
[OF LOG] p assembly : 5154 mu s
[OF LOG] p assembly : 5209 mu s
[OF LOG] p assembly : 5291 mu s
[OF LOG] p assembly : 5349 mu s
[OGL LOG][Proc: 0]global_index_init : 8 mu s
[OGL LOG][Proc: 0]global_index_init : 1 mu s
[OGL LOG][Proc: 0]update_host_matrix_data : 3568 mu s
[OGL LOG][Proc: 0]gather_initGuess : 1 mu s
[OGL LOG][Proc: 0]gather_RHS : 0 mu s
[OGL LOG][Proc: 0]gather_global_matrix : 0 mu s
[OGL LOG][Proc: 0]init_precond : 30 mu s
[OGL LOG][Proc: 0]generate_solver : 1 mu s
[OGL LOG][Proc: 0]solve : 189946 mu s
nonecudaGKOCG:  Solving for p, Initial residual = 1, Final residual = 4.88877e-05, No Iterations 776
linear solve p 245881
[OF LOG] p solve : 245898 mu s
[OF LOG] p solve : 245919 mu s
[OF LOG] p solve : 245957 mu s
[OF LOG] p solve : 245983 mu s
[OF LOG] p solve : 245995 mu s
[OF LOG] p solve : 246027 mu s
[OF LOG] p solve : 246026 mu s
[OF LOG] p solve : 246027 mu s
time step continuity errors : sum local = 5.88065e-10, global = 5.98871e-23, cumulative = -4.15669e-22
[OF LOG] u correct : 4574 mu s
[OF LOG] u correct : 4607 mu s
[OF LOG] u correct : 4554 mu s
[OF LOG] u correct : 4578 mu s
[OF LOG] u correct : 4630 mu s
[OF LOG] u correct : 4641 mu s
[OF LOG] u correct : 4594 mu s
[OF LOG] u correct : 4615 mu s
ExecutionTime = 8.8 s  ClockTime = 9 s

Time = 0.0009

Courant Number mean: 0.00631846 max: 0.0883466
[OF LOG] u assembly : 14164 mu s
[OF LOG] u assembly : 14232 mu s
[OF LOG] u assembly : 14425 mu s
[OF LOG] u assembly : 14476 mu s
[OF LOG] u assembly : 14512 mu s
[OF LOG] u assembly : 14578 mu s
[OF LOG] u assembly : 14749 mu s
[OF LOG] u assembly : 15037 mu s
DILUPBiCGStab:  Solving for Ux, Initial residual = 0.0205618, Final residual = 1.19503e-07, No Iterations 5
DILUPBiCGStab:  Solving for Uy, Initial residual = 0.0286478, Final residual = 7.24735e-08, No Iterations 5
DILUPBiCGStab:  Solving for Uz, Initial residual = 0.0519645, Final residual = 2.25797e-07, No Iterations 5
[OF LOG] u solve : 133634 mu s
linear solve U 126181
[OF LOG] u solve : 133398 mu s
[OF LOG] u solve : 133572 mu s
[OF LOG] u solve : 133570 mu s
[OF LOG] u solve : 133631 mu s
[OF LOG] u solve : 133823 mu s
[OF LOG] u solve : 133872 mu s
[OF LOG] u solve : 133008 mu s
[OF LOG] phiHbyA assembly : 9270 mu s
[OF LOG] phiHbyA assembly : 9567 mu s
[OF LOG] phiHbyA assembly : 9449 mu s
[OF LOG] phiHbyA assembly : 9685 mu s
[OF LOG] phiHbyA assembly : 9581 mu s
[OF LOG] phiHbyA assembly : 9670 mu s
[OF LOG] phiHbyA assembly : 10224 mu s
[OF LOG] phiHbyA assembly : 11430 mu s
[OF LOG] p assembly : 5035 mu s
[OF LOG] p assembly : 5027 mu s
[OF LOG] p assembly : 5154 mu s
[OF LOG] p assembly : 5098 mu s
[OF LOG] p assembly : 5130 mu s
[OF LOG] p assembly : 5165 mu s
[OF LOG] p assembly : 5257 mu s
[OF LOG] p assembly : 6079 mu s
[OGL LOG][Proc: 0]global_index_init : 4 mu s
[OGL LOG][Proc: 0]global_index_init : 1 mu s
[OGL LOG][Proc: 0]update_host_matrix_data : 3745 mu s
[OGL LOG][Proc: 0]gather_initGuess : 1 mu s
[OGL LOG][Proc: 0]gather_RHS : 1 mu s
[OGL LOG][Proc: 0]gather_global_matrix : 0 mu s
[OGL LOG][Proc: 0]init_precond : 37 mu s
[OGL LOG][Proc: 0]generate_solver : 0 mu s
[OGL LOG][Proc: 0]solve : 191266 mu s
nonecudaGKOCG:  Solving for p, Initial residual = 1, Final residual = 5.74052e-05, No Iterations 776
[OF LOG] p solve : 246945 mu s
[OF LOG] p solve : 246956 mu s
[OF LOG] p solve : 246985 mu s
linear solve p 246989
[OF LOG] p solve : 247011 mu s
[OF LOG] p solve : 247012 mu s
[OF LOG] p solve : 247036 mu s
[OF LOG] p solve : 247037 mu s
[OF LOG] p solve : 247037 mu s
time step continuity errors : sum local = 6.96446e-10, global = -2.00185e-21, cumulative = -2.41752e-21
[OF LOG] u correct : 4570 mu s
[OF LOG] u correct : 4607 mu s
[OF LOG] u correct : 4642 mu s
[OF LOG] u correct : 4636 mu s
[OF LOG] u correct : 4603 mu s
[OF LOG] u correct : 4638 mu s
[OF LOG] u correct : 4643 mu s
[OF LOG] u correct : 4715 mu s
[OF LOG] phiHbyA assembly : 9148 mu s
[OF LOG] phiHbyA assembly : 8987 mu s
[OF LOG] phiHbyA assembly : 9039 mu s
[OF LOG] phiHbyA assembly : 9189 mu s
[OF LOG] phiHbyA assembly : 9374 mu s
[OF LOG] phiHbyA assembly : 9271 mu s
[OF LOG] phiHbyA assembly : 9301 mu s
[OF LOG] phiHbyA assembly : 9554 mu s
[OF LOG] p assembly : 4991 mu s
[OF LOG] p assembly : 5108 mu s
[OF LOG] p assembly : 5097 mu s
[OF LOG] p assembly : 5128 mu s
[OF LOG] p assembly : 5213 mu s
[OF LOG] p assembly : 5215 mu s
[OF LOG] p assembly : 5256 mu s
[OF LOG] p assembly : 5288 mu s
[OGL LOG][Proc: 0]global_index_init : 14 mu s
[OGL LOG][Proc: 0]global_index_init : 1 mu s
[OGL LOG][Proc: 0]update_host_matrix_data : 3656 mu s
[OGL LOG][Proc: 0]gather_initGuess : 0 mu s
[OGL LOG][Proc: 0]gather_RHS : 1 mu s
[OGL LOG][Proc: 0]gather_global_matrix : 0 mu s
[OGL LOG][Proc: 0]init_precond : 30 mu s
[OGL LOG][Proc: 0]generate_solver : 0 mu s
[OGL LOG][Proc: 0]solve : 190558 mu s
nonecudaGKOCG:  Solving for p, Initial residual = 1, Final residual = 5.06962e-05, No Iterations 776
[OF LOG] p solve : 246245 mu s
linear solve p 246262
[OF LOG] p solve : 246282 mu s
[OF LOG] p solve : 246212 mu s
[OF LOG] p solve : 246278 mu s
[OF LOG] p solve : 246276 mu s
[OF LOG] p solve : 246218 mu s
[OF LOG] p solve : 246231 mu s
[OF LOG] p solve : 246253 mu s
time step continuity errors : sum local = 6.12841e-10, global = -1.17084e-22, cumulative = -2.53461e-21
[OF LOG] u correct : 4609 mu s
[OF LOG] u correct : 4567 mu s
[OF LOG] u correct : 4648 mu s
[OF LOG] u correct : 4621 mu s
[OF LOG] u correct : 4645 mu s
[OF LOG] u correct : 4684 mu s
[OF LOG] u correct : 4656 mu s
[OF LOG] u correct : 4696 mu s
ExecutionTime = 9.5 s  ClockTime = 10 s

Time = 0.001

Courant Number mean: 0.00664437 max: 0.089014
[OF LOG] u assembly : 14092 mu s
[OF LOG] u assembly : 14128 mu s
[OF LOG] u assembly : 14354 mu s
[OF LOG] u assembly : 14359 mu s
[OF LOG] u assembly : 14504 mu s
[OF LOG] u assembly : 14579 mu s
[OF LOG] u assembly : 14655 mu s
[OF LOG] u assembly : 14915 mu s
DILUPBiCGStab:  Solving for Ux, Initial residual = 0.0181854, Final residual = 1.03017e-07, No Iterations 5
DILUPBiCGStab:  Solving for Uy, Initial residual = 0.0252109, Final residual = 6.15064e-08, No Iterations 5
DILUPBiCGStab:  Solving for Uz, Initial residual = 0.046496, Final residual = 1.94277e-07, No Iterations 5
linear solve U 122582
[OF LOG] u solve : 130203 mu s
[OF LOG] u solve : 129801 mu s
[OF LOG] u solve : 130172 mu s
[OF LOG] u solve : 129649 mu s
[OF LOG] u solve : 129937 mu s
[OF LOG] u solve : 129731 mu s
[OF LOG] u solve : 129948 mu s
[OF LOG] u solve : 129396 mu s
[OF LOG] phiHbyA assembly : 9440 mu s
[OF LOG] phiHbyA assembly : 9589 mu s
[OF LOG] phiHbyA assembly : 9619 mu s
[OF LOG] phiHbyA assembly : 9811 mu s
[OF LOG] phiHbyA assembly : 9637 mu s
[OF LOG] phiHbyA assembly : 9894 mu s
[OF LOG] phiHbyA assembly : 9865 mu s
[OF LOG] phiHbyA assembly : 10172 mu s
[OF LOG] p assembly : 5076 mu s
[OF LOG] p assembly : 5126 mu s
[OF LOG] p assembly : 5185 mu s
[OF LOG] p assembly : 5184 mu s
[OF LOG] p assembly : 5212 mu s
[OF LOG] p assembly : 5282 mu s
[OF LOG] p assembly : 5316 mu s
[OF LOG] p assembly : 5343 mu s
[OGL LOG][Proc: 0]global_index_init : 7 mu s
[OGL LOG][Proc: 0]global_index_init : 2 mu s
[OGL LOG][Proc: 0]update_host_matrix_data : 3764 mu s
[OGL LOG][Proc: 0]gather_initGuess : 1 mu s
[OGL LOG][Proc: 0]gather_RHS : 0 mu s
[OGL LOG][Proc: 0]gather_global_matrix : 0 mu s
[OGL LOG][Proc: 0]init_precond : 31 mu s
[OGL LOG][Proc: 0]generate_solver : 1 mu s
[OGL LOG][Proc: 0]solve : 194944 mu s
nonecudaGKOCG:  Solving for p, Initial residual = 1, Final residual = 5.81934e-05, No Iterations 776
[OF LOG] p solve : 252928 mu s
[OF LOG] p solve : 252924 mu s
linear solve p 252916
[OF LOG] p solve : 252935 mu s
[OF LOG] p solve : 252940 mu s
[OF LOG] p solve : 252978 mu s
[OF LOG] p solve : 252988 mu s
[OF LOG] p solve : 252992 mu s
[OF LOG] p solve : 253003 mu s
time step continuity errors : sum local = 7.08375e-10, global = 9.32787e-23, cumulative = -2.44133e-21
[OF LOG] u correct : 5006 mu s
[OF LOG] u correct : 5030 mu s
[OF LOG] u correct : 5042 mu s
[OF LOG] u correct : 4974 mu s
[OF LOG] u correct : 5000 mu s
[OF LOG] u correct : 5017 mu s
[OF LOG] u correct : 5120 mu s
[OF LOG] u correct : 5178 mu s
[OF LOG] phiHbyA assembly : 8856 mu s
[OF LOG] phiHbyA assembly : 9155 mu s
[OF LOG] phiHbyA assembly : 9002 mu s
[OF LOG] phiHbyA assembly : 9117 mu s
[OF LOG] phiHbyA assembly : 9308 mu s
[OF LOG] phiHbyA assembly : 9239 mu s
[OF LOG] phiHbyA assembly : 9319 mu s
[OF LOG] phiHbyA assembly : 9621 mu s
[OF LOG] p assembly : 4974 mu s
[OF LOG] p assembly : 5065 mu s
[OF LOG] p assembly : 5122 mu s
[OF LOG] p assembly : 5160 mu s
[OF LOG] p assembly : 5190 mu s
[OF LOG] p assembly : 5261 mu s
[OF LOG] p assembly : 5191 mu s
[OF LOG] p assembly : 5261 mu s
[OGL LOG][Proc: 0]global_index_init : 9 mu s
[OGL LOG][Proc: 0]global_index_init : 1 mu s
[OGL LOG][Proc: 0]update_host_matrix_data : 3631 mu s
[OGL LOG][Proc: 0]gather_initGuess : 0 mu s
[OGL LOG][Proc: 0]gather_RHS : 0 mu s
[OGL LOG][Proc: 0]gather_global_matrix : 0 mu s
[OGL LOG][Proc: 0]init_precond : 31 mu s
[OGL LOG][Proc: 0]generate_solver : 0 mu s
[OGL LOG][Proc: 0]solve : 189693 mu s
nonecudaGKOCG:  Solving for p, Initial residual = 1, Final residual = 5.24051e-05, No Iterations 776
[OF LOG] p solve : 245806 mu s
linear solve p 245792
[OF LOG] p solve : 245811 mu s
[OF LOG] p solve : 245829 mu s
[OF LOG] p solve : 245828 mu s
[OF LOG] p solve : 245849 mu s
[OF LOG] p solve : 245873 mu s
[OF LOG] p solve : 245878 mu s
[OF LOG] p solve : 245878 mu s
time step continuity errors : sum local = 6.36085e-10, global = -6.94192e-23, cumulative = -2.51075e-21
[OF LOG] u correct : 4565 mu s
[OF LOG] u correct : 4643 mu s
[OF LOG] u correct : 4652 mu s
[OF LOG] u correct : 4599 mu s
[OF LOG] u correct : 4648 mu s
[OF LOG] u correct : 4671 mu s
[OF LOG] u correct : 4611 mu s
[OF LOG] u correct : 4618 mu s
ExecutionTime = 10.2 s  ClockTime = 11 s

End

Finalising parallel run
================================================================================
