[1] 
[1] 
[1] --> FOAM FATAL ERROR: (openfoam-2112)
[1] cannot find file "/hkfs/work/workspace/scratch/eq4036-lidDrivenCavity/simple_1d/Variation_mesh/500/Variation_matrix_solver/CG_NoPrecond_CUDA/Variation_mpiRank_gko/2/base/processor1/0/p"
[1] 
[1]     From virtual Foam::autoPtr<Foam::ISstream> Foam::fileOperations::uncollatedFileOperation::readStream(Foam::regIOobject&, const Foam::fileName&, const Foam::word&, bool) const
[1]     in file global/fileOperations/uncollatedFileOperation/uncollatedFileOperation.C at line 542.
[1] 
FOAM parallel run exiting
[1] 
--------------------------------------------------------------------------
MPI_ABORT was invoked on rank 1 in communicator MPI_COMM_WORLD
with errorcode 1.

NOTE: invoking MPI_ABORT causes Open MPI to kill all MPI processes.
You may or may not see output from other processes, depending on
exactly when Open MPI kills them.
--------------------------------------------------------------------------

============================= JOB FEEDBACK =============================

Job ID: 1747941
Cluster: hk
User/Group: eq4036/hk-project-test-fine
State: FAILED (exit code 1)
Partition: accelerated
Nodes: 1
Cores per node: 152
Nodelist: hkn0817
CPU Utilized: 00:03:27
CPU Efficiency: 0.57% of 10:00:24 core-walltime
Job Wall-clock time: 00:03:57
Starttime: Fri May 27 07:05:21 2022
Endtime: Fri May 27 07:09:18 2022
Memory Utilized: 40.11 GB
Memory Efficiency: 8.21% of 488.28 GB
Energy Consumed: 147030 Joule / 40.8416666666667 Watthours
Average node power draw: 620.379746835443 Watt
hash: 489a5bf632b38e8400eec7d7916e838b
/*---------------------------------------------------------------------------*\
| =========                 |                                                 |
| \\      /  F ield         | OpenFOAM: The Open Source CFD Toolbox           |
|  \\    /   O peration     | Version:  2112                                  |
|   \\  /    A nd           | Website:  www.openfoam.com                      |
|    \\/     M anipulation  |                                                 |
\*---------------------------------------------------------------------------*/
Build  : d44c8318f0-20220111 OPENFOAM=2112 version=v2112
Arch   : "LSB;label=32;scalar=64"
Exec   : icoFoam -parallel
Date   : May 27 2022
Time   : 07:05:43
Host   : hkn0817.localdomain
PID    : 4083159
I/O    : uncollated
Case   : /hkfs/work/workspace/scratch/eq4036-lidDrivenCavity/simple_1d/Variation_mesh/500/Variation_matrix_solver/CG_NoPrecond_CUDA/Variation_mpiRank_gko/2/base
nProcs : 2
Hosts  :
(
    (hkn0817.localdomain 2)
)
Pstream initialized with:
    floatTransfer      : 0
    nProcsSimpleSum    : 0
    commsType          : nonBlocking
    polling iterations : 0
trapFpe: Floating point exception trapping enabled (FOAM_SIGFPE).
fileModificationChecking : Monitoring run-time modified files using timeStampMaster (fileModificationSkew 5, maxFileModificationPolls 20)
allowSystemOperations : Allowing user-supplied system call operations

// * * * * * * * * * * * * * * * * * * * * * * * * * * * * * * * * * * * * * //
Create time

Create mesh for time = 0


PISO: Operating solver in PISO mode

Reading transportProperties

Reading field p

================================================================================
hash: 6f8a96dba03d70d593f046a9c6928a0e
/*---------------------------------------------------------------------------*\
| =========                 |                                                 |
| \\      /  F ield         | OpenFOAM: The Open Source CFD Toolbox           |
|  \\    /   O peration     | Version:  2112                                  |
|   \\  /    A nd           | Website:  www.openfoam.com                      |
|    \\/     M anipulation  |                                                 |
\*---------------------------------------------------------------------------*/
Build  : d44c8318f0-20220111 OPENFOAM=2112 version=v2112
Arch   : "LSB;label=32;scalar=64"
Exec   : icoFoam -parallel
Date   : May 27 2022
Time   : 07:05:44
Host   : hkn0818.localdomain
PID    : 4014648
I/O    : uncollated
Case   : /hkfs/work/workspace/scratch/eq4036-lidDrivenCavity/simple_1d/Variation_mesh/500/Variation_matrix_solver/CG_NoPrecond_CUDA/Variation_mpiRank_gko/4/base
nProcs : 4
Hosts  :
(
    (hkn0818.localdomain 4)
)
Pstream initialized with:
    floatTransfer      : 0
    nProcsSimpleSum    : 0
    commsType          : nonBlocking
    polling iterations : 0
trapFpe: Floating point exception trapping enabled (FOAM_SIGFPE).
fileModificationChecking : Monitoring run-time modified files using timeStampMaster (fileModificationSkew 5, maxFileModificationPolls 20)
allowSystemOperations : Allowing user-supplied system call operations

// * * * * * * * * * * * * * * * * * * * * * * * * * * * * * * * * * * * * * //
Create time

Create mesh for time = 0


PISO: Operating solver in PISO mode

Reading transportProperties

Reading field p

Reading field U

Reading/calculating face flux field phi


Starting time loop

Time = 2e-05

Courant Number mean: 0 max: 0
DILUPBiCGStab:  Solving for Ux, Initial residual = 1, Final residual = 0.00237799, No Iterations 5
DILUPBiCGStab:  Solving for Uy:  solution singularity
DILUPBiCGStab:  Solving for Uz:  solution singularity
linear solve U 21687971
Init Functor device_id_ 1 1
Init Functor device_id_ 2 1
Init Functor device_id_ 3 1
Init Functor device_id_ 0 1
[OGL LOG][Proc: 0]global_index_init : 23 mu s
[OGL LOG][Proc: 0]global_index_init : 2 mu s
================================================================================

============================= JOB FEEDBACK =============================

Job ID: 1747943
Cluster: hk
User/Group: eq4036/hk-project-test-fine
State: COMPLETED (exit code 0)
Partition: accelerated
Nodes: 4
Cores per node: 152
Nodelist: hkn[0802-0805]
CPU Utilized: 04:01:17
CPU Efficiency: 0.65% of 25-16:46:56 core-walltime
Job Wall-clock time: 01:00:52
Starttime: Fri May 27 07:05:21 2022
Endtime: Fri May 27 08:06:13 2022
Memory Utilized: 50.25 GB
Memory Efficiency: 2.57% of 1.91 TB
Energy Consumed: 11199102 Joule / 3110.86166666667 Watthours
Average node power draw: 3066.56681270537 Watt
hash: f93d6bff589e6d654498ebaff041a463
/*---------------------------------------------------------------------------*\
| =========                 |                                                 |
| \\      /  F ield         | OpenFOAM: The Open Source CFD Toolbox           |
|  \\    /   O peration     | Version:  2112                                  |
|   \\  /    A nd           | Website:  www.openfoam.com                      |
|    \\/     M anipulation  |                                                 |
\*---------------------------------------------------------------------------*/
Build  : d44c8318f0-20220111 OPENFOAM=2112 version=v2112
Arch   : "LSB;label=32;scalar=64"
Exec   : icoFoam -parallel
Date   : May 27 2022
Time   : 07:05:45
Host   : hkn0802.localdomain
PID    : 5686
I/O    : uncollated
Case   : /hkfs/work/workspace/scratch/eq4036-lidDrivenCavity/simple_1d/Variation_mesh/500/Variation_matrix_solver/CG_NoPrecond_CUDA/Variation_mpiRank_gko/16/base
nProcs : 16
Hosts  :
(
    (hkn0802.localdomain 4)
    (hkn0803.localdomain 4)
    (hkn0804.localdomain 4)
    (hkn0805.localdomain 4)
)
Pstream initialized with:
    floatTransfer      : 0
    nProcsSimpleSum    : 0
    commsType          : nonBlocking
    polling iterations : 0
trapFpe: Floating point exception trapping enabled (FOAM_SIGFPE).
fileModificationChecking : Monitoring run-time modified files using timeStampMaster (fileModificationSkew 5, maxFileModificationPolls 20)
allowSystemOperations : Allowing user-supplied system call operations

// * * * * * * * * * * * * * * * * * * * * * * * * * * * * * * * * * * * * * //
Create time

Create mesh for time = 0


PISO: Operating solver in PISO mode

Reading transportProperties

Reading field p

Reading field U

Reading/calculating face flux field phi


Starting time loop

Time = 2e-05

Courant Number mean: 0 max: 0
DILUPBiCGStab:  Solving for Ux, Initial residual = 1, Final residual = 0.00295883, No Iterations 5
DILUPBiCGStab:  Solving for Uy:  solution singularity
DILUPBiCGStab:  Solving for Uz:  solution singularity
linear solve U 5561120
Init Functor device_id_ 0 1
Init Functor device_id_ 0 1
Init Functor device_id_ 1 1
Init Functor device_id_ 0 1
Init Functor device_id_ 1 1
Init Functor device_id_ 2 1
Init Functor device_id_ 1 1
Init Functor device_id_ 2 1
Init Functor device_id_ 3 1
Init Functor device_id_ 2 1
Init Functor device_id_ 3 1
Init Functor device_id_ 3 1
Init Functor device_id_ 1 1
Init Functor device_id_ 2 1
Init Functor device_id_ 3 1
Init Functor device_id_ 0 1
[OGL LOG][Proc: 0]global_index_init : 13750 mu s
[OGL LOG][Proc: 0]global_index_init : 3 mu s
[OGL LOG][Proc: 0]init_host_sparsity_pattern : 1246904694 mu s
[OGL LOG][Proc: 0]update_host_matrix_data : 236856 mu s
[OGL LOG][Proc: 0]convert_coo_to_csr : 4019409 mu s
[OGL LOG][Proc: 0]gather_global_matrix : 6 mu s
[OGL LOG][Proc: 0]init_precond : 82 mu s
[OGL LOG][Proc: 0]generate_solver : 18 mu s
[OGL LOG][Proc: 0]solve : 9574353 mu s
[OGL LOG][Proc: 0]copy_x_back : 23210 mu s
nonecudaGKOCG:  Solving for p, Initial residual = 1, Final residual = 9.89961e-05, No Iterations 4076
linear solve p -1778551223
time step continuity errors : sum local = 1.91436e-10, global = 1.51451e-22, cumulative = 1.51451e-22
[OGL LOG][Proc: 0]global_index_init : 15 mu s
[OGL LOG][Proc: 0]global_index_init : 2 mu s
[OGL LOG][Proc: 0]update_host_matrix_data : 216016 mu s
[OGL LOG][Proc: 0]gather_global_matrix : 0 mu s
[OGL LOG][Proc: 0]init_precond : 40 mu s
[OGL LOG][Proc: 0]generate_solver : 2 mu s
[OGL LOG][Proc: 0]solve : 9047052 mu s
[OGL LOG][Proc: 0]copy_x_back : 31655 mu s
nonecudaGKOCG:  Solving for p, Initial residual = 0.749828, Final residual = 7.14551e-05, No Iterations 4076
linear solve p 14516047
time step continuity errors : sum local = 1.78843e-10, global = -4.58627e-23, cumulative = 1.05588e-22
ExecutionTime = 2570.5 s  ClockTime = 2574 s

Time = 4e-05

Courant Number mean: 0.00105357 max: 0.0776321
DILUPBiCGStab:  Solving for Ux, Initial residual = 0.150321, Final residual = 0.00179687, No Iterations 5
DILUPBiCGStab:  Solving for Uy, Initial residual = 0.356538, Final residual = 0.00205646, No Iterations 5
DILUPBiCGStab:  Solving for Uz, Initial residual = 0.995474, Final residual = 0.00871806, No Iterations 5
linear solve U 18680970
[OGL LOG][Proc: 0]global_index_init : 12 mu s
[OGL LOG][Proc: 0]global_index_init : 2 mu s
[OGL LOG][Proc: 0]update_host_matrix_data : 216992 mu s
[OGL LOG][Proc: 0]gather_global_matrix : 0 mu s
[OGL LOG][Proc: 0]init_precond : 35 mu s
[OGL LOG][Proc: 0]generate_solver : 1 mu s
[OGL LOG][Proc: 0]solve : 9029131 mu s
[OGL LOG][Proc: 0]copy_x_back : 31489 mu s
nonecudaGKOCG:  Solving for p, Initial residual = 0.741322, Final residual = 3.87651e-05, No Iterations 4076
linear solve p 14510099
time step continuity errors : sum local = 1.1875e-10, global = -1.36567e-22, cumulative = -3.09789e-23
[OGL LOG][Proc: 0]global_index_init : 10 mu s
[OGL LOG][Proc: 0]global_index_init : 2 mu s
[OGL LOG][Proc: 0]update_host_matrix_data : 217672 mu s
[OGL LOG][Proc: 0]gather_global_matrix : 0 mu s
[OGL LOG][Proc: 0]init_precond : 38 mu s
[OGL LOG][Proc: 0]generate_solver : 2 mu s
[OGL LOG][Proc: 0]solve : 9040060 mu s
[OGL LOG][Proc: 0]copy_x_back : 30865 mu s
nonecudaGKOCG:  Solving for p, Initial residual = 0.672919, Final residual = 3.54805e-05, No Iterations 4076
linear solve p 14515263
time step continuity errors : sum local = 1.10457e-10, global = -1.71103e-22, cumulative = -2.02081e-22
ExecutionTime = 2626.78 s  ClockTime = 2631 s

Time = 6e-05

Courant Number mean: 0.00160448 max: 0.0884704
DILUPBiCGStab:  Solving for Ux, Initial residual = 0.0624654, Final residual = 0.000483456, No Iterations 5
DILUPBiCGStab:  Solving for Uy, Initial residual = 0.140534, Final residual = 0.0005331, No Iterations 5
DILUPBiCGStab:  Solving for Uz, Initial residual = 0.652967, Final residual = 0.00648557, No Iterations 5
linear solve U 21472279
[OGL LOG][Proc: 0]global_index_init : 13 mu s
[OGL LOG][Proc: 0]global_index_init : 2 mu s
[OGL LOG][Proc: 0]update_host_matrix_data : 214825 mu s
[OGL LOG][Proc: 0]gather_global_matrix : 0 mu s
[OGL LOG][Proc: 0]init_precond : 34 mu s
[OGL LOG][Proc: 0]generate_solver : 1 mu s
[OGL LOG][Proc: 0]solve : 8687939 mu s
[OGL LOG][Proc: 0]copy_x_back : 31399 mu s
nonecudaGKOCG:  Solving for p, Initial residual = 0.677727, Final residual = 7.79125e-05, No Iterations 3913
linear solve p 14189239
time step continuity errors : sum local = 1.64601e-10, global = -2.24179e-22, cumulative = -4.2626e-22
[OGL LOG][Proc: 0]global_index_init : 12 mu s
[OGL LOG][Proc: 0]global_index_init : 2 mu s
[OGL LOG][Proc: 0]update_host_matrix_data : 214493 mu s
[OGL LOG][Proc: 0]gather_global_matrix : 0 mu s
[OGL LOG][Proc: 0]init_precond : 38 mu s
[OGL LOG][Proc: 0]generate_solver : 2 mu s
[OGL LOG][Proc: 0]solve : 8684174 mu s
[OGL LOG][Proc: 0]copy_x_back : 31362 mu s
nonecudaGKOCG:  Solving for p, Initial residual = 0.620303, Final residual = 7.96951e-05, No Iterations 3901
linear solve p 14141661
time step continuity errors : sum local = 1.64281e-10, global = -1.53354e-22, cumulative = -5.79615e-22
ExecutionTime = 2685.1 s  ClockTime = 2689 s

Time = 8e-05

Courant Number mean: 0.0019902 max: 0.0913777
DILUPBiCGStab:  Solving for Ux, Initial residual = 0.0415605, Final residual = 0.000239443, No Iterations 5
DILUPBiCGStab:  Solving for Uy, Initial residual = 0.0888683, Final residual = 0.000290403, No Iterations 5
DILUPBiCGStab:  Solving for Uz, Initial residual = 0.162543, Final residual = 0.00115031, No Iterations 5
linear solve U 18758278
[OGL LOG][Proc: 0]global_index_init : 15 mu s
[OGL LOG][Proc: 0]global_index_init : 2 mu s
[OGL LOG][Proc: 0]update_host_matrix_data : 213381 mu s
[OGL LOG][Proc: 0]gather_global_matrix : 0 mu s
[OGL LOG][Proc: 0]init_precond : 37 mu s
[OGL LOG][Proc: 0]generate_solver : 1 mu s
[OGL LOG][Proc: 0]solve : 8663726 mu s
[OGL LOG][Proc: 0]copy_x_back : 31365 mu s
nonecudaGKOCG:  Solving for p, Initial residual = 0.463354, Final residual = 6.31566e-05, No Iterations 3901
linear solve p 14208087
time step continuity errors : sum local = 1.09456e-10, global = -1.80311e-22, cumulative = -7.59926e-22
[OGL LOG][Proc: 0]global_index_init : 21 mu s
[OGL LOG][Proc: 0]global_index_init : 2 mu s
[OGL LOG][Proc: 0]update_host_matrix_data : 215146 mu s
[OGL LOG][Proc: 0]gather_global_matrix : 0 mu s
[OGL LOG][Proc: 0]init_precond : 48 mu s
[OGL LOG][Proc: 0]generate_solver : 2 mu s
[OGL LOG][Proc: 0]solve : 8672922 mu s
[OGL LOG][Proc: 0]copy_x_back : 31425 mu s
nonecudaGKOCG:  Solving for p, Initial residual = 0.399179, Final residual = 5.94593e-05, No Iterations 3901
linear solve p 14155545
time step continuity errors : sum local = 1.03649e-10, global = -1.80956e-22, cumulative = -9.40882e-22
ExecutionTime = 2740.75 s  ClockTime = 2745 s

Time = 0.0001

Courant Number mean: 0.00230404 max: 0.0927842
DILUPBiCGStab:  Solving for Ux, Initial residual = 0.0318652, Final residual = 0.000141108, No Iterations 5
DILUPBiCGStab:  Solving for Uy, Initial residual = 0.0637163, Final residual = 0.000175901, No Iterations 5
DILUPBiCGStab:  Solving for Uz, Initial residual = 0.0914726, Final residual = 0.000544744, No Iterations 5
linear solve U 18566709
[OGL LOG][Proc: 0]global_index_init : 12 mu s
[OGL LOG][Proc: 0]global_index_init : 2 mu s
[OGL LOG][Proc: 0]update_host_matrix_data : 214685 mu s
[OGL LOG][Proc: 0]gather_global_matrix : 0 mu s
[OGL LOG][Proc: 0]init_precond : 38 mu s
[OGL LOG][Proc: 0]generate_solver : 1 mu s
[OGL LOG][Proc: 0]solve : 8671040 mu s
[OGL LOG][Proc: 0]copy_x_back : 31374 mu s
nonecudaGKOCG:  Solving for p, Initial residual = 0.368616, Final residual = 4.31439e-05, No Iterations 3901
linear solve p 14157339
time step continuity errors : sum local = 6.1375e-11, global = -2.15657e-22, cumulative = -1.15654e-21
[OGL LOG][Proc: 0]global_index_init : 11 mu s
[OGL LOG][Proc: 0]global_index_init : 2 mu s
[OGL LOG][Proc: 0]update_host_matrix_data : 215685 mu s
[OGL LOG][Proc: 0]gather_global_matrix : 0 mu s
[OGL LOG][Proc: 0]init_precond : 39 mu s
[OGL LOG][Proc: 0]generate_solver : 1 mu s
[OGL LOG][Proc: 0]solve : 8660357 mu s
[OGL LOG][Proc: 0]copy_x_back : 31175 mu s
nonecudaGKOCG:  Solving for p, Initial residual = 0.316928, Final residual = 4.0128e-05, No Iterations 3901
linear solve p 14128533
time step continuity errors : sum local = 5.66311e-11, global = -2.158e-22, cumulative = -1.37234e-21
ExecutionTime = 2796.17 s  ClockTime = 2801 s

Time = 0.00012

Courant Number mean: 0.00257265 max: 0.0936622
DILUPBiCGStab:  Solving for Ux, Initial residual = 0.0259676, Final residual = 9.67756e-05, No Iterations 5
DILUPBiCGStab:  Solving for Uy, Initial residual = 0.0501164, Final residual = 8.81115e-05, No Iterations 5
DILUPBiCGStab:  Solving for Uz, Initial residual = 0.0798675, Final residual = 0.000471536, No Iterations 5
linear solve U 21457246
[OGL LOG][Proc: 0]global_index_init : 13 mu s
[OGL LOG][Proc: 0]global_index_init : 2 mu s
[OGL LOG][Proc: 0]update_host_matrix_data : 215534 mu s
[OGL LOG][Proc: 0]gather_global_matrix : 0 mu s
[OGL LOG][Proc: 0]init_precond : 35 mu s
[OGL LOG][Proc: 0]generate_solver : 2 mu s
[OGL LOG][Proc: 0]solve : 8673421 mu s
[OGL LOG][Proc: 0]copy_x_back : 31197 mu s
nonecudaGKOCG:  Solving for p, Initial residual = 0.243078, Final residual = 3.34552e-05, No Iterations 3901
linear solve p 14152889
time step continuity errors : sum local = 4.47417e-11, global = -1.99668e-22, cumulative = -1.57201e-21
[OGL LOG][Proc: 0]global_index_init : 19 mu s
[OGL LOG][Proc: 0]global_index_init : 3 mu s
[OGL LOG][Proc: 0]update_host_matrix_data : 215873 mu s
[OGL LOG][Proc: 0]gather_global_matrix : 0 mu s
[OGL LOG][Proc: 0]init_precond : 44 mu s
[OGL LOG][Proc: 0]generate_solver : 3 mu s
[OGL LOG][Proc: 0]solve : 8693889 mu s
[OGL LOG][Proc: 0]copy_x_back : 31510 mu s
nonecudaGKOCG:  Solving for p, Initial residual = 0.206487, Final residual = 3.17097e-05, No Iterations 3901
linear solve p 14164885
time step continuity errors : sum local = 4.23651e-11, global = -2.0148e-22, cumulative = -1.77349e-21
ExecutionTime = 2854.48 s  ClockTime = 2859 s

Time = 0.00014

Courant Number mean: 0.00281022 max: 0.0942745
DILUPBiCGStab:  Solving for Ux, Initial residual = 0.0220434, Final residual = 6.84463e-05, No Iterations 5
DILUPBiCGStab:  Solving for Uy, Initial residual = 0.0411575, Final residual = 7.32825e-05, No Iterations 5
DILUPBiCGStab:  Solving for Uz, Initial residual = 0.0664607, Final residual = 0.000285483, No Iterations 5
linear solve U 18646002
[OGL LOG][Proc: 0]global_index_init : 16 mu s
[OGL LOG][Proc: 0]global_index_init : 2 mu s
[OGL LOG][Proc: 0]update_host_matrix_data : 214065 mu s
[OGL LOG][Proc: 0]gather_global_matrix : 0 mu s
[OGL LOG][Proc: 0]init_precond : 37 mu s
[OGL LOG][Proc: 0]generate_solver : 1 mu s
[OGL LOG][Proc: 0]solve : 8340961 mu s
[OGL LOG][Proc: 0]copy_x_back : 31556 mu s
nonecudaGKOCG:  Solving for p, Initial residual = 0.18176, Final residual = 8.27524e-05, No Iterations 3745
linear solve p 13820917
time step continuity errors : sum local = 1.04169e-10, global = -2.76026e-22, cumulative = -2.04951e-21
[OGL LOG][Proc: 0]global_index_init : 18 mu s
[OGL LOG][Proc: 0]global_index_init : 2 mu s
[OGL LOG][Proc: 0]update_host_matrix_data : 218367 mu s
[OGL LOG][Proc: 0]gather_global_matrix : 0 mu s
[OGL LOG][Proc: 0]init_precond : 35 mu s
[OGL LOG][Proc: 0]generate_solver : 1 mu s
[OGL LOG][Proc: 0]solve : 8601632 mu s
[OGL LOG][Proc: 0]copy_x_back : 31058 mu s
nonecudaGKOCG:  Solving for p, Initial residual = 0.15405, Final residual = 3.48329e-05, No Iterations 3875
linear solve p 14094206
time step continuity errors : sum local = 4.37871e-11, global = -3.10573e-22, cumulative = -2.36009e-21
ExecutionTime = 2909.54 s  ClockTime = 2914 s

Time = 0.00016

Courant Number mean: 0.00302449 max: 0.0947341
DILUPBiCGStab:  Solving for Ux, Initial residual = 0.0192031, Final residual = 5.18049e-05, No Iterations 5
DILUPBiCGStab:  Solving for Uy, Initial residual = 0.0349553, Final residual = 5.19767e-05, No Iterations 5
DILUPBiCGStab:  Solving for Uz, Initial residual = 0.0588409, Final residual = 0.000185465, No Iterations 5
linear solve U 21229038
[OGL LOG][Proc: 0]global_index_init : 13 mu s
[OGL LOG][Proc: 0]global_index_init : 2 mu s
[OGL LOG][Proc: 0]update_host_matrix_data : 215847 mu s
[OGL LOG][Proc: 0]gather_global_matrix : 0 mu s
[OGL LOG][Proc: 0]init_precond : 46 mu s
[OGL LOG][Proc: 0]generate_solver : 3 mu s
[OGL LOG][Proc: 0]solve : 8627301 mu s
[OGL LOG][Proc: 0]copy_x_back : 31507 mu s
nonecudaGKOCG:  Solving for p, Initial residual = 0.125096, Final residual = 3.23227e-05, No Iterations 3876
linear solve p 14113972
time step continuity errors : sum local = 3.93972e-11, global = -2.84318e-22, cumulative = -2.6444e-21
[OGL LOG][Proc: 0]global_index_init : 9 mu s
[OGL LOG][Proc: 0]global_index_init : 2 mu s
[OGL LOG][Proc: 0]update_host_matrix_data : 214312 mu s
[OGL LOG][Proc: 0]gather_global_matrix : 0 mu s
[OGL LOG][Proc: 0]init_precond : 46 mu s
[OGL LOG][Proc: 0]generate_solver : 2 mu s
[OGL LOG][Proc: 0]solve : 8275551 mu s
[OGL LOG][Proc: 0]copy_x_back : 31209 mu s
nonecudaGKOCG:  Solving for p, Initial residual = 0.10691, Final residual = 9.92151e-05, No Iterations 3721
linear solve p 13736256
time step continuity errors : sum local = 1.20822e-10, global = -2.10345e-22, cumulative = -2.85475e-21
ExecutionTime = 2967.19 s  ClockTime = 2972 s

Time = 0.00018

Courant Number mean: 0.00322063 max: 0.0950953
DILUPBiCGStab:  Solving for Ux, Initial residual = 0.0170338, Final residual = 4.13338e-05, No Iterations 5
DILUPBiCGStab:  Solving for Uy, Initial residual = 0.0303711, Final residual = 4.80704e-05, No Iterations 5
DILUPBiCGStab:  Solving for Uz, Initial residual = 0.0520066, Final residual = 0.000136242, No Iterations 5
linear solve U 21429657
[OGL LOG][Proc: 0]global_index_init : 9 mu s
[OGL LOG][Proc: 0]global_index_init : 2 mu s
[OGL LOG][Proc: 0]update_host_matrix_data : 215913 mu s
[OGL LOG][Proc: 0]gather_global_matrix : 0 mu s
[OGL LOG][Proc: 0]init_precond : 35 mu s
[OGL LOG][Proc: 0]generate_solver : 1 mu s
[OGL LOG][Proc: 0]solve : 8557659 mu s
[OGL LOG][Proc: 0]copy_x_back : 31043 mu s
nonecudaGKOCG:  Solving for p, Initial residual = 0.0962373, Final residual = 4.49145e-05, No Iterations 3849
linear solve p 14028822
time step continuity errors : sum local = 5.34926e-11, global = -2.73936e-22, cumulative = -3.12869e-21
[OGL LOG][Proc: 0]global_index_init : 20 mu s
[OGL LOG][Proc: 0]global_index_init : 2 mu s
[OGL LOG][Proc: 0]update_host_matrix_data : 214572 mu s
[OGL LOG][Proc: 0]gather_global_matrix : 0 mu s
[OGL LOG][Proc: 0]init_precond : 35 mu s
[OGL LOG][Proc: 0]generate_solver : 2 mu s
[OGL LOG][Proc: 0]solve : 8518389 mu s
[OGL LOG][Proc: 0]copy_x_back : 31656 mu s
nonecudaGKOCG:  Solving for p, Initial residual = 0.0822342, Final residual = 6.76558e-05, No Iterations 3826
linear solve p 14011020
time step continuity errors : sum local = 8.05352e-11, global = -2.36937e-22, cumulative = -3.36562e-21
ExecutionTime = 3025.17 s  ClockTime = 3030 s

Time = 0.0002

Courant Number mean: 0.00340207 max: 0.0953887
DILUPBiCGStab:  Solving for Ux, Initial residual = 0.0153316, Final residual = 3.45039e-05, No Iterations 5
DILUPBiCGStab:  Solving for Uy, Initial residual = 0.0268401, Final residual = 3.92835e-05, No Iterations 5
DILUPBiCGStab:  Solving for Uz, Initial residual = 0.0472867, Final residual = 0.000102393, No Iterations 5
linear solve U 18610548
[OGL LOG][Proc: 0]global_index_init : 13 mu s
[OGL LOG][Proc: 0]global_index_init : 2 mu s
[OGL LOG][Proc: 0]update_host_matrix_data : 215284 mu s
[OGL LOG][Proc: 0]gather_global_matrix : 0 mu s
[OGL LOG][Proc: 0]init_precond : 41 mu s
[OGL LOG][Proc: 0]generate_solver : 1 mu s
[OGL LOG][Proc: 0]solve : 8519211 mu s
[OGL LOG][Proc: 0]copy_x_back : 31337 mu s
nonecudaGKOCG:  Solving for p, Initial residual = 0.0695749, Final residual = 4.31708e-05, No Iterations 3826
linear solve p 14000134
time step continuity errors : sum local = 5.06568e-11, global = -2.51571e-22, cumulative = -3.61719e-21
[OGL LOG][Proc: 0]global_index_init : 14 mu s
[OGL LOG][Proc: 0]global_index_init : 2 mu s
[OGL LOG][Proc: 0]update_host_matrix_data : 218780 mu s
[OGL LOG][Proc: 0]gather_global_matrix : 0 mu s
[OGL LOG][Proc: 0]init_precond : 35 mu s
[OGL LOG][Proc: 0]generate_solver : 1 mu s
[OGL LOG][Proc: 0]solve : 8500070 mu s
[OGL LOG][Proc: 0]copy_x_back : 31386 mu s
nonecudaGKOCG:  Solving for p, Initial residual = 0.0613266, Final residual = 3.97961e-05, No Iterations 3826
linear solve p 13987649
time step continuity errors : sum local = 4.66966e-11, global = -2.81082e-22, cumulative = -3.89828e-21
ExecutionTime = 3080.3 s  ClockTime = 3085 s

Time = 0.00022

Courant Number mean: 0.00357131 max: 0.0956333
DILUPBiCGStab:  Solving for Ux, Initial residual = 0.0139446, Final residual = 2.95002e-05, No Iterations 5
DILUPBiCGStab:  Solving for Uy, Initial residual = 0.0240435, Final residual = 3.56949e-05, No Iterations 5
DILUPBiCGStab:  Solving for Uz, Initial residual = 0.0430027, Final residual = 8.30527e-05, No Iterations 5
linear solve U 14842813
[OGL LOG][Proc: 0]global_index_init : 21 mu s
[OGL LOG][Proc: 0]global_index_init : 2 mu s
[OGL LOG][Proc: 0]update_host_matrix_data : 216577 mu s
[OGL LOG][Proc: 0]gather_global_matrix : 0 mu s
[OGL LOG][Proc: 0]init_precond : 44 mu s
[OGL LOG][Proc: 0]generate_solver : 1 mu s
[OGL LOG][Proc: 0]solve : 8530994 mu s
[OGL LOG][Proc: 0]copy_x_back : 31702 mu s
nonecudaGKOCG:  Solving for p, Initial residual = 0.055905, Final residual = 4.46147e-05, No Iterations 3826
linear solve p 14005929
time step continuity errors : sum local = 5.17903e-11, global = -2.48572e-22, cumulative = -4.14685e-21
[OGL LOG][Proc: 0]global_index_init : 9 mu s
[OGL LOG][Proc: 0]global_index_init : 1 mu s
[OGL LOG][Proc: 0]update_host_matrix_data : 212351 mu s
[OGL LOG][Proc: 0]gather_global_matrix : 0 mu s
[OGL LOG][Proc: 0]init_precond : 47 mu s
[OGL LOG][Proc: 0]generate_solver : 2 mu s
[OGL LOG][Proc: 0]solve : 8516833 mu s
[OGL LOG][Proc: 0]copy_x_back : 31615 mu s
nonecudaGKOCG:  Solving for p, Initial residual = 0.0491944, Final residual = 4.24987e-05, No Iterations 3826
linear solve p 14019897
time step continuity errors : sum local = 4.9318e-11, global = -2.58281e-22, cumulative = -4.40513e-21
ExecutionTime = 3131.71 s  ClockTime = 3137 s

Time = 0.00024

Courant Number mean: 0.00373025 max: 0.095841
DILUPBiCGStab:  Solving for Ux, Initial residual = 0.0127997, Final residual = 2.58016e-05, No Iterations 5
DILUPBiCGStab:  Solving for Uy, Initial residual = 0.0217668, Final residual = 3.14684e-05, No Iterations 5
DILUPBiCGStab:  Solving for Uz, Initial residual = 0.0394534, Final residual = 7.03755e-05, No Iterations 5
linear solve U 21252114
[OGL LOG][Proc: 0]global_index_init : 8 mu s
[OGL LOG][Proc: 0]global_index_init : 2 mu s
[OGL LOG][Proc: 0]update_host_matrix_data : 215524 mu s
[OGL LOG][Proc: 0]gather_global_matrix : 0 mu s
[OGL LOG][Proc: 0]init_precond : 35 mu s
[OGL LOG][Proc: 0]generate_solver : 1 mu s
[OGL LOG][Proc: 0]solve : 8175418 mu s
[OGL LOG][Proc: 0]copy_x_back : 31281 mu s
nonecudaGKOCG:  Solving for p, Initial residual = 0.044343, Final residual = 9.19163e-05, No Iterations 3673
linear solve p 13649129
time step continuity errors : sum local = 1.06128e-10, global = -3.25466e-22, cumulative = -4.73059e-21
[OGL LOG][Proc: 0]global_index_init : 11 mu s
[OGL LOG][Proc: 0]global_index_init : 2 mu s
[OGL LOG][Proc: 0]update_host_matrix_data : 217505 mu s
[OGL LOG][Proc: 0]gather_global_matrix : 0 mu s
[OGL LOG][Proc: 0]init_precond : 44 mu s
[OGL LOG][Proc: 0]generate_solver : 2 mu s
[OGL LOG][Proc: 0]solve : 8168291 mu s
[OGL LOG][Proc: 0]copy_x_back : 30970 mu s
nonecudaGKOCG:  Solving for p, Initial residual = 0.0406276, Final residual = 8.90968e-05, No Iterations 3651
linear solve p 13635619
time step continuity errors : sum local = 1.02914e-10, global = -2.94165e-22, cumulative = -5.02476e-21
ExecutionTime = 3188.86 s  ClockTime = 3194 s

Time = 0.00026

Courant Number mean: 0.00388037 max: 0.0960205
DILUPBiCGStab:  Solving for Ux, Initial residual = 0.0118309, Final residual = 2.29154e-05, No Iterations 5
DILUPBiCGStab:  Solving for Uy, Initial residual = 0.0198823, Final residual = 2.8852e-05, No Iterations 5
DILUPBiCGStab:  Solving for Uz, Initial residual = 0.0361236, Final residual = 6.13382e-05, No Iterations 5
linear solve U 14976982
[OGL LOG][Proc: 0]global_index_init : 13 mu s
[OGL LOG][Proc: 0]global_index_init : 2 mu s
[OGL LOG][Proc: 0]update_host_matrix_data : 215852 mu s
[OGL LOG][Proc: 0]gather_global_matrix : 0 mu s
[OGL LOG][Proc: 0]init_precond : 39 mu s
[OGL LOG][Proc: 0]generate_solver : 1 mu s
[OGL LOG][Proc: 0]solve : 8146061 mu s
[OGL LOG][Proc: 0]copy_x_back : 31138 mu s
nonecudaGKOCG:  Solving for p, Initial residual = 0.0368155, Final residual = 7.53413e-05, No Iterations 3651
linear solve p 13642843
time step continuity errors : sum local = 8.64769e-11, global = -3.08413e-22, cumulative = -5.33317e-21
[OGL LOG][Proc: 0]global_index_init : 17 mu s
[OGL LOG][Proc: 0]global_index_init : 2 mu s
[OGL LOG][Proc: 0]update_host_matrix_data : 217025 mu s
[OGL LOG][Proc: 0]gather_global_matrix : 0 mu s
[OGL LOG][Proc: 0]init_precond : 43 mu s
[OGL LOG][Proc: 0]generate_solver : 2 mu s
[OGL LOG][Proc: 0]solve : 8147787 mu s
[OGL LOG][Proc: 0]copy_x_back : 31694 mu s
nonecudaGKOCG:  Solving for p, Initial residual = 0.0337896, Final residual = 6.88486e-05, No Iterations 3651
linear solve p 13604996
time step continuity errors : sum local = 7.90234e-11, global = -3.65224e-22, cumulative = -5.6984e-21
ExecutionTime = 3239.7 s  ClockTime = 3245 s

Time = 0.00028

Courant Number mean: 0.00402272 max: 0.0961774
DILUPBiCGStab:  Solving for Ux, Initial residual = 0.0110042, Final residual = 2.07242e-05, No Iterations 5
DILUPBiCGStab:  Solving for Uy, Initial residual = 0.0182931, Final residual = 2.63422e-05, No Iterations 5
DILUPBiCGStab:  Solving for Uz, Initial residual = 0.0336241, Final residual = 5.50796e-05, No Iterations 5
linear solve U 21166192
[OGL LOG][Proc: 0]global_index_init : 9 mu s
[OGL LOG][Proc: 0]global_index_init : 1 mu s
[OGL LOG][Proc: 0]update_host_matrix_data : 217704 mu s
[OGL LOG][Proc: 0]gather_global_matrix : 0 mu s
[OGL LOG][Proc: 0]init_precond : 35 mu s
[OGL LOG][Proc: 0]generate_solver : 2 mu s
[OGL LOG][Proc: 0]solve : 8151818 mu s
[OGL LOG][Proc: 0]copy_x_back : 31329 mu s
nonecudaGKOCG:  Solving for p, Initial residual = 0.0319868, Final residual = 7.74953e-05, No Iterations 3651
linear solve p 13635021
time step continuity errors : sum local = 8.88657e-11, global = -3.53083e-22, cumulative = -6.05148e-21
[OGL LOG][Proc: 0]global_index_init : 16 mu s
[OGL LOG][Proc: 0]global_index_init : 2 mu s
[OGL LOG][Proc: 0]update_host_matrix_data : 214051 mu s
[OGL LOG][Proc: 0]gather_global_matrix : 0 mu s
[OGL LOG][Proc: 0]init_precond : 48 mu s
[OGL LOG][Proc: 0]generate_solver : 2 mu s
[OGL LOG][Proc: 0]solve : 8124923 mu s
[OGL LOG][Proc: 0]copy_x_back : 31515 mu s
nonecudaGKOCG:  Solving for p, Initial residual = 0.0301886, Final residual = 7.48559e-05, No Iterations 3651
linear solve p 13611900
time step continuity errors : sum local = 8.58695e-11, global = -2.30142e-22, cumulative = -6.28162e-21
ExecutionTime = 3296.7 s  ClockTime = 3302 s

Time = 0.0003

Courant Number mean: 0.00415822 max: 0.0963163
DILUPBiCGStab:  Solving for Ux, Initial residual = 0.0102866, Final residual = 1.89476e-05, No Iterations 5
DILUPBiCGStab:  Solving for Uy, Initial residual = 0.0169372, Final residual = 2.43979e-05, No Iterations 5
DILUPBiCGStab:  Solving for Uz, Initial residual = 0.0313226, Final residual = 5.02316e-05, No Iterations 5
linear solve U 21312254
[OGL LOG][Proc: 0]global_index_init : 13 mu s
[OGL LOG][Proc: 0]global_index_init : 2 mu s
[OGL LOG][Proc: 0]update_host_matrix_data : 218252 mu s
[OGL LOG][Proc: 0]gather_global_matrix : 0 mu s
[OGL LOG][Proc: 0]init_precond : 36 mu s
[OGL LOG][Proc: 0]generate_solver : 2 mu s
[OGL LOG][Proc: 0]solve : 8118263 mu s
[OGL LOG][Proc: 0]copy_x_back : 31448 mu s
nonecudaGKOCG:  Solving for p, Initial residual = 0.0275978, Final residual = 6.86424e-05, No Iterations 3651
linear solve p 13613195
time step continuity errors : sum local = 7.84175e-11, global = -2.69961e-22, cumulative = -6.55158e-21
[OGL LOG][Proc: 0]global_index_init : 9 mu s
[OGL LOG][Proc: 0]global_index_init : 2 mu s
[OGL LOG][Proc: 0]update_host_matrix_data : 216562 mu s
[OGL LOG][Proc: 0]gather_global_matrix : 0 mu s
[OGL LOG][Proc: 0]init_precond : 37 mu s
[OGL LOG][Proc: 0]generate_solver : 4 mu s
[OGL LOG][Proc: 0]solve : 8141861 mu s
[OGL LOG][Proc: 0]copy_x_back : 31203 mu s
nonecudaGKOCG:  Solving for p, Initial residual = 0.0262473, Final residual = 6.6051e-05, No Iterations 3651
linear solve p 13633934
time step continuity errors : sum local = 7.5469e-11, global = -3.11861e-22, cumulative = -6.86344e-21
ExecutionTime = 3353.79 s  ClockTime = 3359 s

Time = 0.00032

Courant Number mean: 0.00428771 max: 0.0964402
DILUPBiCGStab:  Solving for Ux, Initial residual = 0.00965971, Final residual = 1.74473e-05, No Iterations 5
DILUPBiCGStab:  Solving for Uy, Initial residual = 0.0157651, Final residual = 2.26542e-05, No Iterations 5
DILUPBiCGStab:  Solving for Uz, Initial residual = 0.0294138, Final residual = 4.64303e-05, No Iterations 5
linear solve U 18615101
[OGL LOG][Proc: 0]global_index_init : 16 mu s
[OGL LOG][Proc: 0]global_index_init : 2 mu s
[OGL LOG][Proc: 0]update_host_matrix_data : 216678 mu s
[OGL LOG][Proc: 0]gather_global_matrix : 0 mu s
[OGL LOG][Proc: 0]init_precond : 39 mu s
[OGL LOG][Proc: 0]generate_solver : 1 mu s
[OGL LOG][Proc: 0]solve : 8158245 mu s
[OGL LOG][Proc: 0]copy_x_back : 31785 mu s
nonecudaGKOCG:  Solving for p, Initial residual = 0.0254852, Final residual = 4.84928e-05, No Iterations 3651
linear solve p 13653114
time step continuity errors : sum local = 5.54266e-11, global = -3.06421e-22, cumulative = -7.16987e-21
[OGL LOG][Proc: 0]global_index_init : 12 mu s
[OGL LOG][Proc: 0]global_index_init : 2 mu s
[OGL LOG][Proc: 0]update_host_matrix_data : 218227 mu s
[OGL LOG][Proc: 0]gather_global_matrix : 0 mu s
[OGL LOG][Proc: 0]init_precond : 46 mu s
[OGL LOG][Proc: 0]generate_solver : 2 mu s
[OGL LOG][Proc: 0]solve : 8151539 mu s
[OGL LOG][Proc: 0]copy_x_back : 31631 mu s
nonecudaGKOCG:  Solving for p, Initial residual = 0.0245294, Final residual = 3.17881e-05, No Iterations 3651
linear solve p 13607602
time step continuity errors : sum local = 3.63435e-11, global = -3.96732e-22, cumulative = -7.5666e-21
ExecutionTime = 3408.21 s  ClockTime = 3414 s

Time = 0.00034

Courant Number mean: 0.00441175 max: 0.0965517
DILUPBiCGStab:  Solving for Ux, Initial residual = 0.00910546, Final residual = 1.61848e-05, No Iterations 5
DILUPBiCGStab:  Solving for Uy, Initial residual = 0.0147429, Final residual = 2.11785e-05, No Iterations 5
DILUPBiCGStab:  Solving for Uz, Initial residual = 0.0277861, Final residual = 4.35382e-05, No Iterations 5
linear solve U 18662024
[OGL LOG][Proc: 0]global_index_init : 12 mu s
[OGL LOG][Proc: 0]global_index_init : 2 mu s
[OGL LOG][Proc: 0]update_host_matrix_data : 216907 mu s
[OGL LOG][Proc: 0]gather_global_matrix : 0 mu s
[OGL LOG][Proc: 0]init_precond : 35 mu s
[OGL LOG][Proc: 0]generate_solver : 4 mu s
[OGL LOG][Proc: 0]solve : 8151079 mu s
[OGL LOG][Proc: 0]copy_x_back : 31655 mu s
nonecudaGKOCG:  Solving for p, Initial residual = 0.0226654, Final residual = 6.24586e-05, No Iterations 3651
linear solve p 13638590
time step continuity errors : sum local = 7.12298e-11, global = -2.73627e-22, cumulative = -7.84022e-21
[OGL LOG][Proc: 0]global_index_init : 18 mu s
[OGL LOG][Proc: 0]global_index_init : 2 mu s
[OGL LOG][Proc: 0]update_host_matrix_data : 212828 mu s
[OGL LOG][Proc: 0]gather_global_matrix : 0 mu s
[OGL LOG][Proc: 0]init_precond : 36 mu s
[OGL LOG][Proc: 0]generate_solver : 1 mu s
[OGL LOG][Proc: 0]solve : 8131522 mu s
[OGL LOG][Proc: 0]copy_x_back : 31514 mu s
nonecudaGKOCG:  Solving for p, Initial residual = 0.0220252, Final residual = 5.99777e-05, No Iterations 3651
linear solve p 13627510
time step continuity errors : sum local = 6.8416e-11, global = -3.70393e-22, cumulative = -8.21062e-21
ExecutionTime = 3462.7 s  ClockTime = 3468 s

Time = 0.00036

Courant Number mean: 0.00453084 max: 0.0966527
DILUPBiCGStab:  Solving for Ux, Initial residual = 0.00861274, Final residual = 1.50898e-05, No Iterations 5
DILUPBiCGStab:  Solving for Uy, Initial residual = 0.0138428, Final residual = 1.98778e-05, No Iterations 5
DILUPBiCGStab:  Solving for Uz, Initial residual = 0.0261082, Final residual = 4.08403e-05, No Iterations 5
linear solve U 21345658
[OGL LOG][Proc: 0]global_index_init : 11 mu s
[OGL LOG][Proc: 0]global_index_init : 2 mu s
[OGL LOG][Proc: 0]update_host_matrix_data : 215555 mu s
[OGL LOG][Proc: 0]gather_global_matrix : 0 mu s
[OGL LOG][Proc: 0]init_precond : 48 mu s
[OGL LOG][Proc: 0]generate_solver : 1 mu s
[OGL LOG][Proc: 0]solve : 8133190 mu s
[OGL LOG][Proc: 0]copy_x_back : 31385 mu s
nonecudaGKOCG:  Solving for p, Initial residual = 0.021587, Final residual = 5.42153e-05, No Iterations 3651
linear solve p 13602250
time step continuity errors : sum local = 6.18643e-11, global = -2.90826e-22, cumulative = -8.50144e-21
[OGL LOG][Proc: 0]global_index_init : 12 mu s
[OGL LOG][Proc: 0]global_index_init : 2 mu s
[OGL LOG][Proc: 0]update_host_matrix_data : 216932 mu s
[OGL LOG][Proc: 0]gather_global_matrix : 0 mu s
[OGL LOG][Proc: 0]init_precond : 48 mu s
[OGL LOG][Proc: 0]generate_solver : 2 mu s
[OGL LOG][Proc: 0]solve : 8142311 mu s
[OGL LOG][Proc: 0]copy_x_back : 31626 mu s
nonecudaGKOCG:  Solving for p, Initial residual = 0.0210017, Final residual = 5.24052e-05, No Iterations 3651
linear solve p 13655672
time step continuity errors : sum local = 5.9813e-11, global = -3.17919e-22, cumulative = -8.81936e-21
ExecutionTime = 3519.83 s  ClockTime = 3526 s

Time = 0.00038

Courant Number mean: 0.00464554 max: 0.0967448
DILUPBiCGStab:  Solving for Ux, Initial residual = 0.0081709, Final residual = 1.41303e-05, No Iterations 5
DILUPBiCGStab:  Solving for Uy, Initial residual = 0.0130447, Final residual = 1.87374e-05, No Iterations 5
DILUPBiCGStab:  Solving for Uz, Initial residual = 0.0247698, Final residual = 3.88354e-05, No Iterations 5
linear solve U 18673904
[OGL LOG][Proc: 0]global_index_init : 10 mu s
[OGL LOG][Proc: 0]global_index_init : 2 mu s
[OGL LOG][Proc: 0]update_host_matrix_data : 216065 mu s
[OGL LOG][Proc: 0]gather_global_matrix : 0 mu s
[OGL LOG][Proc: 0]init_precond : 38 mu s
[OGL LOG][Proc: 0]generate_solver : 1 mu s
[OGL LOG][Proc: 0]solve : 6586953 mu s
[OGL LOG][Proc: 0]copy_x_back : 31399 mu s
nonecudaGKOCG:  Solving for p, Initial residual = 0.0197645, Final residual = 7.5408e-05, No Iterations 2921
linear solve p 12075887
time step continuity errors : sum local = 8.64026e-11, global = -3.82904e-22, cumulative = -9.20227e-21
[OGL LOG][Proc: 0]global_index_init : 18 mu s
[OGL LOG][Proc: 0]global_index_init : 2 mu s
[OGL LOG][Proc: 0]update_host_matrix_data : 216553 mu s
[OGL LOG][Proc: 0]gather_global_matrix : 0 mu s
[OGL LOG][Proc: 0]init_precond : 55 mu s
[OGL LOG][Proc: 0]generate_solver : 2 mu s
[OGL LOG][Proc: 0]solve : 5570961 mu s
[OGL LOG][Proc: 0]copy_x_back : 31193 mu s
nonecudaGKOCG:  Solving for p, Initial residual = 0.0193658, Final residual = 1.7377e-06, No Iterations 2437
linear solve p 11032835
time step continuity errors : sum local = 2.10746e-12, global = -3.42998e-22, cumulative = -9.54527e-21
ExecutionTime = 3570.16 s  ClockTime = 3576 s

Time = 0.0004

Courant Number mean: 0.00475609 max: 0.0968291
DILUPBiCGStab:  Solving for Ux, Initial residual = 0.00777266, Final residual = 1.32827e-05, No Iterations 5
DILUPBiCGStab:  Solving for Uy, Initial residual = 0.0123324, Final residual = 1.77271e-05, No Iterations 5
DILUPBiCGStab:  Solving for Uz, Initial residual = 0.023703, Final residual = 3.72959e-05, No Iterations 5
linear solve U 18609089
[OGL LOG][Proc: 0]global_index_init : 12 mu s
[OGL LOG][Proc: 0]global_index_init : 2 mu s
[OGL LOG][Proc: 0]update_host_matrix_data : 216410 mu s
[OGL LOG][Proc: 0]gather_global_matrix : 0 mu s
[OGL LOG][Proc: 0]init_precond : 35 mu s
[OGL LOG][Proc: 0]generate_solver : 1 mu s
[OGL LOG][Proc: 0]solve : 4717797 mu s
[OGL LOG][Proc: 0]copy_x_back : 31557 mu s
nonecudaGKOCG:  Solving for p, Initial residual = 0.0188789, Final residual = 3.9943e-06, No Iterations 2038
linear solve p 10185042
time step continuity errors : sum local = 4.56269e-12, global = -3.47095e-22, cumulative = -9.89236e-21
[OGL LOG][Proc: 0]global_index_init : 11 mu s
[OGL LOG][Proc: 0]global_index_init : 2 mu s
[OGL LOG][Proc: 0]update_host_matrix_data : 214394 mu s
[OGL LOG][Proc: 0]gather_global_matrix : 0 mu s
[OGL LOG][Proc: 0]init_precond : 50 mu s
[OGL LOG][Proc: 0]generate_solver : 2 mu s
[OGL LOG][Proc: 0]solve : 4009627 mu s
[OGL LOG][Proc: 0]copy_x_back : 30732 mu s
nonecudaGKOCG:  Solving for p, Initial residual = 0.0184867, Final residual = 2.64654e-05, No Iterations 1702
linear solve p 9467361
time step continuity errors : sum local = 3.01804e-11, global = -3.62468e-22, cumulative = -1.02548e-20
ExecutionTime = 3617.01 s  ClockTime = 3623 s

End

Finalising parallel run
================================================================================

============================= JOB FEEDBACK =============================

Job ID: 1747944
Cluster: hk
User/Group: eq4036/hk-project-test-fine
State: COMPLETED (exit code 0)
Partition: accelerated
Nodes: 16
Cores per node: 152
Nodelist: hkn[0502-0512,0514-0518]
CPU Utilized: 01:11:09
CPU Efficiency: 0.16% of 30-21:05:04 core-walltime
Job Wall-clock time: 00:18:17
Starttime: Fri May 27 07:05:24 2022
Endtime: Fri May 27 07:23:41 2022
Memory Utilized: 18.09 GB
Memory Efficiency: 0.23% of 7.63 TB
Energy Consumed: 12939558 Joule / 3594.32166666667 Watthours
Average node power draw: 11795.4038286235 Watt
hash: 353a92bfc125558369742dcec30a6f51
/*---------------------------------------------------------------------------*\
| =========                 |                                                 |
| \\      /  F ield         | OpenFOAM: The Open Source CFD Toolbox           |
|  \\    /   O peration     | Version:  2112                                  |
|   \\  /    A nd           | Website:  www.openfoam.com                      |
|    \\/     M anipulation  |                                                 |
\*---------------------------------------------------------------------------*/
Build  : d44c8318f0-20220111 OPENFOAM=2112 version=v2112
Arch   : "LSB;label=32;scalar=64"
Exec   : icoFoam -parallel
Date   : May 27 2022
Time   : 07:05:48
Host   : hkn0502.localdomain
PID    : 462271
I/O    : uncollated
Case   : /hkfs/work/workspace/scratch/eq4036-lidDrivenCavity/simple_1d/Variation_mesh/500/Variation_matrix_solver/CG_NoPrecond_CUDA/Variation_mpiRank_gko/64/base
nProcs : 64
Hosts  :
(
    (hkn0502.localdomain 4)
    (hkn0503.localdomain 4)
    (hkn0504.localdomain 4)
    (hkn0505.localdomain 4)
    (hkn0506.localdomain 4)
    (hkn0507.localdomain 4)
    (hkn0508.localdomain 4)
    (hkn0509.localdomain 4)
    (hkn0510.localdomain 4)
    (hkn0511.localdomain 4)
    (hkn0512.localdomain 4)
    (hkn0514.localdomain 4)
    (hkn0515.localdomain 4)
    (hkn0516.localdomain 4)
    (hkn0517.localdomain 4)
    (hkn0518.localdomain 4)
)
Pstream initialized with:
    floatTransfer      : 0
    nProcsSimpleSum    : 0
    commsType          : nonBlocking
    polling iterations : 0
trapFpe: Floating point exception trapping enabled (FOAM_SIGFPE).
fileModificationChecking : Monitoring run-time modified files using timeStampMaster (fileModificationSkew 5, maxFileModificationPolls 20)
allowSystemOperations : Allowing user-supplied system call operations

// * * * * * * * * * * * * * * * * * * * * * * * * * * * * * * * * * * * * * //
Create time

Create mesh for time = 0


PISO: Operating solver in PISO mode

Reading transportProperties

Reading field p

Reading field U

Reading/calculating face flux field phi


Starting time loop

Time = 2e-05

Courant Number mean: 0 max: 0
DILUPBiCGStab:  Solving for Ux, Initial residual = 1, Final residual = 0.00434212, No Iterations 5
DILUPBiCGStab:  Solving for Uy:  solution singularity
DILUPBiCGStab:  Solving for Uz:  solution singularity
linear solve U 1387042
Init Functor device_id_ 1 1
Init Functor device_id_ 2 1
Init Functor device_id_ 3 1
Init Functor device_id_ 0 1
Init Functor device_id_ 0 1
Init Functor device_id_ 0 1
Init Functor device_id_ 0 1
Init Functor device_id_ 1 1
Init Functor device_id_ 0 1
Init Functor device_id_ 0 1
Init Functor device_id_ 0 1
Init Functor device_id_ 0 1
Init Functor device_id_ 0 1
Init Functor device_id_ 0 1
Init Functor device_id_ 0 1
Init Functor device_id_ 0 1
Init Functor device_id_ 0 1
Init Functor device_id_ 0 1
Init Functor device_id_ 0 1
Init Functor device_id_ 0 1
Init Functor device_id_ 1 1
Init Functor device_id_ 2 1
Init Functor device_id_ 1 1
Init Functor device_id_ 1 1
Init Functor device_id_ 1 1
Init Functor device_id_ 1 1
Init Functor device_id_ 1 1
Init Functor device_id_ 1 1
Init Functor device_id_ 1 1
Init Functor device_id_ 1 1
Init Functor device_id_ 1 1
Init Functor device_id_ 2 1
Init Functor device_id_ 3 1
Init Functor device_id_ 1 1
Init Functor device_id_ 2 1
Init Functor device_id_ 2 1
Init Functor device_id_ 1 1
Init Functor device_id_ 2 1
Init Functor device_id_ 1 1
Init Functor device_id_ 2 1
Init Functor device_id_ 2 1
Init Functor device_id_ 1 1
Init Functor device_id_ 2 1
Init Functor device_id_ 2 1
Init Functor device_id_ 2 1
Init Functor device_id_ 2 1
Init Functor device_id_ 3 1
Init Functor device_id_ 2 1
Init Functor device_id_ 3 1
Init Functor device_id_ 3 1
Init Functor device_id_ 2 1
Init Functor device_id_ 3 1
Init Functor device_id_ 2 1
Init Functor device_id_ 3 1
Init Functor device_id_ 3 1
Init Functor device_id_ 2 1
Init Functor device_id_ 3 1
Init Functor device_id_ 3 1
Init Functor device_id_ 3 1
Init Functor device_id_ 3 1
Init Functor device_id_ 3 1
Init Functor device_id_ 3 1
Init Functor device_id_ 3 1
Init Functor device_id_ 3 1
[OGL LOG][Proc: 0]global_index_init : 3973 mu s
[OGL LOG][Proc: 0]global_index_init : 24 mu s
[OGL LOG][Proc: 0]init_host_sparsity_pattern : 311400107 mu s
[OGL LOG][Proc: 0]update_host_matrix_data : 57768 mu s
[OGL LOG][Proc: 0]convert_coo_to_csr : 4173562 mu s
[OGL LOG][Proc: 0]gather_global_matrix : 5 mu s
[OGL LOG][Proc: 0]init_precond : 78 mu s
[OGL LOG][Proc: 0]generate_solver : 16 mu s
[OGL LOG][Proc: 0]solve : 6581943 mu s
[OGL LOG][Proc: 0]copy_x_back : 5203 mu s
nonecudaGKOCG:  Solving for p, Initial residual = 1, Final residual = 9.93636e-05, No Iterations 4074
linear solve p 640454860
time step continuity errors : sum local = 1.96312e-10, global = -4.25708e-22, cumulative = -4.25708e-22
[OGL LOG][Proc: 0]global_index_init : 39 mu s
[OGL LOG][Proc: 0]global_index_init : 19 mu s
[OGL LOG][Proc: 0]update_host_matrix_data : 47403 mu s
[OGL LOG][Proc: 0]gather_global_matrix : 0 mu s
[OGL LOG][Proc: 0]init_precond : 41 mu s
[OGL LOG][Proc: 0]generate_solver : 1 mu s
[OGL LOG][Proc: 0]solve : 6480211 mu s
[OGL LOG][Proc: 0]copy_x_back : 5285 mu s
nonecudaGKOCG:  Solving for p, Initial residual = 0.735822, Final residual = 1.83647e-05, No Iterations 4213
linear solve p 8910940
time step continuity errors : sum local = 4.71702e-11, global = -3.6733e-22, cumulative = -7.93038e-22
ExecutionTime = 659.83 s  ClockTime = 662 s

Time = 4e-05

Courant Number mean: 0.00104935 max: 0.0776061
DILUPBiCGStab:  Solving for Ux, Initial residual = 0.150437, Final residual = 0.00270398, No Iterations 5
DILUPBiCGStab:  Solving for Uy, Initial residual = 0.357416, Final residual = 0.00260072, No Iterations 5
DILUPBiCGStab:  Solving for Uz, Initial residual = 0.992852, Final residual = 0.0116046, No Iterations 5
linear solve U 2760727
[OGL LOG][Proc: 0]global_index_init : 37 mu s
[OGL LOG][Proc: 0]global_index_init : 18 mu s
[OGL LOG][Proc: 0]update_host_matrix_data : 52557 mu s
[OGL LOG][Proc: 0]gather_global_matrix : 0 mu s
[OGL LOG][Proc: 0]init_precond : 34 mu s
[OGL LOG][Proc: 0]generate_solver : 1 mu s
[OGL LOG][Proc: 0]solve : 6197062 mu s
[OGL LOG][Proc: 0]copy_x_back : 5317 mu s
nonecudaGKOCG:  Solving for p, Initial residual = 0.747558, Final residual = 6.55748e-05, No Iterations 4033
linear solve p 8639470
time step continuity errors : sum local = 2.05798e-10, global = -5.8798e-22, cumulative = -1.38102e-21
[OGL LOG][Proc: 0]global_index_init : 40 mu s
[OGL LOG][Proc: 0]global_index_init : 10 mu s
[OGL LOG][Proc: 0]update_host_matrix_data : 48023 mu s
[OGL LOG][Proc: 0]gather_global_matrix : 0 mu s
[OGL LOG][Proc: 0]init_precond : 39 mu s
[OGL LOG][Proc: 0]generate_solver : 1 mu s
[OGL LOG][Proc: 0]solve : 6224724 mu s
[OGL LOG][Proc: 0]copy_x_back : 5352 mu s
nonecudaGKOCG:  Solving for p, Initial residual = 0.65094, Final residual = 6.13714e-05, No Iterations 4026
linear solve p 8664826
time step continuity errors : sum local = 1.97309e-10, global = -5.2645e-22, cumulative = -1.90747e-21
ExecutionTime = 682.11 s  ClockTime = 684 s

Time = 6e-05

Courant Number mean: 0.00159981 max: 0.088459
DILUPBiCGStab:  Solving for Ux, Initial residual = 0.0626383, Final residual = 0.000767493, No Iterations 5
DILUPBiCGStab:  Solving for Uy, Initial residual = 0.140899, Final residual = 0.000525956, No Iterations 5
DILUPBiCGStab:  Solving for Uz, Initial residual = 0.64496, Final residual = 0.00850136, No Iterations 5
linear solve U 2686738
[OGL LOG][Proc: 0]global_index_init : 41 mu s
[OGL LOG][Proc: 0]global_index_init : 7 mu s
[OGL LOG][Proc: 0]update_host_matrix_data : 54140 mu s
[OGL LOG][Proc: 0]gather_global_matrix : 0 mu s
[OGL LOG][Proc: 0]init_precond : 36 mu s
[OGL LOG][Proc: 0]generate_solver : 1 mu s
[OGL LOG][Proc: 0]solve : 6206188 mu s
[OGL LOG][Proc: 0]copy_x_back : 7607 mu s
nonecudaGKOCG:  Solving for p, Initial residual = 0.700715, Final residual = 2.68033e-05, No Iterations 4026
linear solve p 8655655
time step continuity errors : sum local = 6.09277e-11, global = -6.48942e-22, cumulative = -2.55641e-21
[OGL LOG][Proc: 0]global_index_init : 28 mu s
[OGL LOG][Proc: 0]global_index_init : 15 mu s
[OGL LOG][Proc: 0]update_host_matrix_data : 53447 mu s
[OGL LOG][Proc: 0]gather_global_matrix : 0 mu s
[OGL LOG][Proc: 0]init_precond : 36 mu s
[OGL LOG][Proc: 0]generate_solver : 1 mu s
[OGL LOG][Proc: 0]solve : 6207892 mu s
[OGL LOG][Proc: 0]copy_x_back : 5298 mu s
nonecudaGKOCG:  Solving for p, Initial residual = 0.618599, Final residual = 2.5868e-05, No Iterations 4026
linear solve p 8642085
time step continuity errors : sum local = 5.68745e-11, global = -6.80872e-22, cumulative = -3.23728e-21
ExecutionTime = 704.33 s  ClockTime = 707 s

Time = 8e-05

Courant Number mean: 0.00198536 max: 0.0913634
DILUPBiCGStab:  Solving for Ux, Initial residual = 0.0416855, Final residual = 0.0003598, No Iterations 5
DILUPBiCGStab:  Solving for Uy, Initial residual = 0.0890604, Final residual = 0.000381716, No Iterations 5
DILUPBiCGStab:  Solving for Uz, Initial residual = 0.164018, Final residual = 0.00177308, No Iterations 5
linear solve U 2868672
[OGL LOG][Proc: 0]global_index_init : 35 mu s
[OGL LOG][Proc: 0]global_index_init : 19 mu s
[OGL LOG][Proc: 0]update_host_matrix_data : 53354 mu s
[OGL LOG][Proc: 0]gather_global_matrix : 0 mu s
[OGL LOG][Proc: 0]init_precond : 41 mu s
[OGL LOG][Proc: 0]generate_solver : 2 mu s
[OGL LOG][Proc: 0]solve : 5963479 mu s
[OGL LOG][Proc: 0]copy_x_back : 5242 mu s
nonecudaGKOCG:  Solving for p, Initial residual = 0.50459, Final residual = 6.33779e-05, No Iterations 3865
linear solve p 8409352
time step continuity errors : sum local = 1.18426e-10, global = -7.16527e-22, cumulative = -3.95381e-21
[OGL LOG][Proc: 0]global_index_init : 29 mu s
[OGL LOG][Proc: 0]global_index_init : 22 mu s
[OGL LOG][Proc: 0]update_host_matrix_data : 53104 mu s
[OGL LOG][Proc: 0]gather_global_matrix : 0 mu s
[OGL LOG][Proc: 0]init_precond : 37 mu s
[OGL LOG][Proc: 0]generate_solver : 2 mu s
[OGL LOG][Proc: 0]solve : 5950735 mu s
[OGL LOG][Proc: 0]copy_x_back : 5103 mu s
nonecudaGKOCG:  Solving for p, Initial residual = 0.414815, Final residual = 6.60305e-05, No Iterations 3851
linear solve p 8388812
time step continuity errors : sum local = 1.23801e-10, global = -7.61925e-22, cumulative = -4.71573e-21
ExecutionTime = 726.27 s  ClockTime = 729 s

Time = 0.0001

Courant Number mean: 0.00229927 max: 0.0927748
DILUPBiCGStab:  Solving for Ux, Initial residual = 0.0319623, Final residual = 0.000206333, No Iterations 5
DILUPBiCGStab:  Solving for Uy, Initial residual = 0.0638631, Final residual = 0.000190262, No Iterations 5
DILUPBiCGStab:  Solving for Uz, Initial residual = 0.093065, Final residual = 0.000749323, No Iterations 5
linear solve U 2698214
[OGL LOG][Proc: 0]global_index_init : 30 mu s
[OGL LOG][Proc: 0]global_index_init : 19 mu s
[OGL LOG][Proc: 0]update_host_matrix_data : 54091 mu s
[OGL LOG][Proc: 0]gather_global_matrix : 0 mu s
[OGL LOG][Proc: 0]init_precond : 42 mu s
[OGL LOG][Proc: 0]generate_solver : 1 mu s
[OGL LOG][Proc: 0]solve : 6175157 mu s
[OGL LOG][Proc: 0]copy_x_back : 7572 mu s
nonecudaGKOCG:  Solving for p, Initial residual = 0.405828, Final residual = 1.13178e-05, No Iterations 4005
linear solve p 8622611
time step continuity errors : sum local = 1.70907e-11, global = -8.61236e-22, cumulative = -5.57697e-21
[OGL LOG][Proc: 0]global_index_init : 30 mu s
[OGL LOG][Proc: 0]global_index_init : 13 mu s
[OGL LOG][Proc: 0]update_host_matrix_data : 53491 mu s
[OGL LOG][Proc: 0]gather_global_matrix : 0 mu s
[OGL LOG][Proc: 0]init_precond : 38 mu s
[OGL LOG][Proc: 0]generate_solver : 1 mu s
[OGL LOG][Proc: 0]solve : 6181114 mu s
[OGL LOG][Proc: 0]copy_x_back : 5197 mu s
nonecudaGKOCG:  Solving for p, Initial residual = 0.333023, Final residual = 1.14451e-05, No Iterations 4001
linear solve p 8621671
time step continuity errors : sum local = 1.70553e-11, global = -7.54743e-22, cumulative = -6.33171e-21
ExecutionTime = 748.44 s  ClockTime = 751 s

Time = 0.00012

Courant Number mean: 0.00256799 max: 0.093653
DILUPBiCGStab:  Solving for Ux, Initial residual = 0.0260447, Final residual = 0.000123438, No Iterations 5
DILUPBiCGStab:  Solving for Uy, Initial residual = 0.0502214, Final residual = 0.000125624, No Iterations 5
DILUPBiCGStab:  Solving for Uz, Initial residual = 0.0809441, Final residual = 0.000740533, No Iterations 5
linear solve U 2801016
[OGL LOG][Proc: 0]global_index_init : 37 mu s
[OGL LOG][Proc: 0]global_index_init : 17 mu s
[OGL LOG][Proc: 0]update_host_matrix_data : 54032 mu s
[OGL LOG][Proc: 0]gather_global_matrix : 0 mu s
[OGL LOG][Proc: 0]init_precond : 36 mu s
[OGL LOG][Proc: 0]generate_solver : 1 mu s
[OGL LOG][Proc: 0]solve : 5925666 mu s
[OGL LOG][Proc: 0]copy_x_back : 5741 mu s
nonecudaGKOCG:  Solving for p, Initial residual = 0.284012, Final residual = 7.80662e-05, No Iterations 3841
linear solve p 8366814
time step continuity errors : sum local = 1.10029e-10, global = -8.67571e-22, cumulative = -7.19928e-21
[OGL LOG][Proc: 0]global_index_init : 32 mu s
[OGL LOG][Proc: 0]global_index_init : 14 mu s
[OGL LOG][Proc: 0]update_host_matrix_data : 53653 mu s
[OGL LOG][Proc: 0]gather_global_matrix : 0 mu s
[OGL LOG][Proc: 0]init_precond : 40 mu s
[OGL LOG][Proc: 0]generate_solver : 2 mu s
[OGL LOG][Proc: 0]solve : 5920765 mu s
[OGL LOG][Proc: 0]copy_x_back : 5230 mu s
nonecudaGKOCG:  Solving for p, Initial residual = 0.227428, Final residual = 7.5062e-05, No Iterations 3826
linear solve p 8358219
time step continuity errors : sum local = 1.05464e-10, global = -8.82468e-22, cumulative = -8.08175e-21
ExecutionTime = 770.19 s  ClockTime = 773 s

Time = 0.00014

Courant Number mean: 0.00280573 max: 0.0942669
DILUPBiCGStab:  Solving for Ux, Initial residual = 0.0221062, Final residual = 8.61207e-05, No Iterations 5
DILUPBiCGStab:  Solving for Uy, Initial residual = 0.0412402, Final residual = 9.17369e-05, No Iterations 5
DILUPBiCGStab:  Solving for Uz, Initial residual = 0.067071, Final residual = 0.000373089, No Iterations 5
linear solve U 2697063
[OGL LOG][Proc: 0]global_index_init : 32 mu s
[OGL LOG][Proc: 0]global_index_init : 16 mu s
[OGL LOG][Proc: 0]update_host_matrix_data : 54062 mu s
[OGL LOG][Proc: 0]gather_global_matrix : 0 mu s
[OGL LOG][Proc: 0]init_precond : 38 mu s
[OGL LOG][Proc: 0]generate_solver : 1 mu s
[OGL LOG][Proc: 0]solve : 5900954 mu s
[OGL LOG][Proc: 0]copy_x_back : 5369 mu s
nonecudaGKOCG:  Solving for p, Initial residual = 0.21003, Final residual = 9.31877e-05, No Iterations 3826
linear solve p 8355299
time step continuity errors : sum local = 1.21402e-10, global = -9.57095e-22, cumulative = -9.03885e-21
[OGL LOG][Proc: 0]global_index_init : 31 mu s
[OGL LOG][Proc: 0]global_index_init : 16 mu s
[OGL LOG][Proc: 0]update_host_matrix_data : 53940 mu s
[OGL LOG][Proc: 0]gather_global_matrix : 0 mu s
[OGL LOG][Proc: 0]init_precond : 38 mu s
[OGL LOG][Proc: 0]generate_solver : 1 mu s
[OGL LOG][Proc: 0]solve : 5914581 mu s
[OGL LOG][Proc: 0]copy_x_back : 5302 mu s
nonecudaGKOCG:  Solving for p, Initial residual = 0.16769, Final residual = 8.82478e-05, No Iterations 3826
linear solve p 8354671
time step continuity errors : sum local = 1.14455e-10, global = -9.47679e-22, cumulative = -9.98653e-21
ExecutionTime = 791.81 s  ClockTime = 794 s

Time = 0.00016

Courant Number mean: 0.00302019 max: 0.0947274
DILUPBiCGStab:  Solving for Ux, Initial residual = 0.0192549, Final residual = 6.68744e-05, No Iterations 5
DILUPBiCGStab:  Solving for Uy, Initial residual = 0.0350212, Final residual = 6.12831e-05, No Iterations 5
DILUPBiCGStab:  Solving for Uz, Initial residual = 0.0592905, Final residual = 0.000302588, No Iterations 5
linear solve U 2688576
[OGL LOG][Proc: 0]global_index_init : 38 mu s
[OGL LOG][Proc: 0]global_index_init : 8 mu s
[OGL LOG][Proc: 0]update_host_matrix_data : 54014 mu s
[OGL LOG][Proc: 0]gather_global_matrix : 0 mu s
[OGL LOG][Proc: 0]init_precond : 35 mu s
[OGL LOG][Proc: 0]generate_solver : 1 mu s
[OGL LOG][Proc: 0]solve : 5903728 mu s
[OGL LOG][Proc: 0]copy_x_back : 7741 mu s
nonecudaGKOCG:  Solving for p, Initial residual = 0.149722, Final residual = 6.69532e-05, No Iterations 3826
linear solve p 8352711
time step continuity errors : sum local = 8.382e-11, global = -9.42499e-22, cumulative = -1.0929e-20
[OGL LOG][Proc: 0]global_index_init : 34 mu s
[OGL LOG][Proc: 0]global_index_init : 11 mu s
[OGL LOG][Proc: 0]update_host_matrix_data : 53902 mu s
[OGL LOG][Proc: 0]gather_global_matrix : 0 mu s
[OGL LOG][Proc: 0]init_precond : 35 mu s
[OGL LOG][Proc: 0]generate_solver : 1 mu s
[OGL LOG][Proc: 0]solve : 5687734 mu s
[OGL LOG][Proc: 0]copy_x_back : 5529 mu s
nonecudaGKOCG:  Solving for p, Initial residual = 0.118657, Final residual = 9.09406e-05, No Iterations 3673
linear solve p 8127866
time step continuity errors : sum local = 1.13603e-10, global = -1.06362e-21, cumulative = -1.19926e-20
ExecutionTime = 813.22 s  ClockTime = 816 s

Time = 0.00018

Courant Number mean: 0.00321651 max: 0.0950893
DILUPBiCGStab:  Solving for Ux, Initial residual = 0.0170777, Final residual = 5.17111e-05, No Iterations 5
DILUPBiCGStab:  Solving for Uy, Initial residual = 0.030425, Final residual = 5.09011e-05, No Iterations 5
DILUPBiCGStab:  Solving for Uz, Initial residual = 0.0525186, Final residual = 0.000223587, No Iterations 5
linear solve U 2685997
[OGL LOG][Proc: 0]global_index_init : 36 mu s
[OGL LOG][Proc: 0]global_index_init : 20 mu s
[OGL LOG][Proc: 0]update_host_matrix_data : 53768 mu s
[OGL LOG][Proc: 0]gather_global_matrix : 0 mu s
[OGL LOG][Proc: 0]init_precond : 35 mu s
[OGL LOG][Proc: 0]generate_solver : 1 mu s
[OGL LOG][Proc: 0]solve : 5853009 mu s
[OGL LOG][Proc: 0]copy_x_back : 4989 mu s
nonecudaGKOCG:  Solving for p, Initial residual = 0.110738, Final residual = 3.87783e-05, No Iterations 3797
linear solve p 8303724
time step continuity errors : sum local = 4.68976e-11, global = -1.018e-21, cumulative = -1.30106e-20
[OGL LOG][Proc: 0]global_index_init : 31 mu s
[OGL LOG][Proc: 0]global_index_init : 8 mu s
[OGL LOG][Proc: 0]update_host_matrix_data : 54320 mu s
[OGL LOG][Proc: 0]gather_global_matrix : 0 mu s
[OGL LOG][Proc: 0]init_precond : 34 mu s
[OGL LOG][Proc: 0]generate_solver : 2 mu s
[OGL LOG][Proc: 0]solve : 5836158 mu s
[OGL LOG][Proc: 0]copy_x_back : 5464 mu s
nonecudaGKOCG:  Solving for p, Initial residual = 0.0876515, Final residual = 3.47983e-05, No Iterations 3776
linear solve p 8305498
time step continuity errors : sum local = 4.19894e-11, global = -1.05376e-21, cumulative = -1.40644e-20
ExecutionTime = 834.73 s  ClockTime = 837 s

Time = 0.0002

Courant Number mean: 0.00339812 max: 0.0953833
DILUPBiCGStab:  Solving for Ux, Initial residual = 0.0153692, Final residual = 4.33021e-05, No Iterations 5
DILUPBiCGStab:  Solving for Uy, Initial residual = 0.0268848, Final residual = 3.82131e-05, No Iterations 5
DILUPBiCGStab:  Solving for Uz, Initial residual = 0.0475878, Final residual = 0.000182218, No Iterations 5
linear solve U 2693534
[OGL LOG][Proc: 0]global_index_init : 32 mu s
[OGL LOG][Proc: 0]global_index_init : 16 mu s
[OGL LOG][Proc: 0]update_host_matrix_data : 52603 mu s
[OGL LOG][Proc: 0]gather_global_matrix : 0 mu s
[OGL LOG][Proc: 0]init_precond : 33 mu s
[OGL LOG][Proc: 0]generate_solver : 1 mu s
[OGL LOG][Proc: 0]solve : 5820363 mu s
[OGL LOG][Proc: 0]copy_x_back : 5281 mu s
nonecudaGKOCG:  Solving for p, Initial residual = 0.0794035, Final residual = 7.0404e-05, No Iterations 3776
linear solve p 8263683
time step continuity errors : sum local = 8.33814e-11, global = -1.09692e-21, cumulative = -1.51613e-20
[OGL LOG][Proc: 0]global_index_init : 36 mu s
[OGL LOG][Proc: 0]global_index_init : 18 mu s
[OGL LOG][Proc: 0]update_host_matrix_data : 54140 mu s
[OGL LOG][Proc: 0]gather_global_matrix : 0 mu s
[OGL LOG][Proc: 0]init_precond : 42 mu s
[OGL LOG][Proc: 0]generate_solver : 1 mu s
[OGL LOG][Proc: 0]solve : 5836568 mu s
[OGL LOG][Proc: 0]copy_x_back : 7475 mu s
nonecudaGKOCG:  Solving for p, Initial residual = 0.0634436, Final residual = 6.82473e-05, No Iterations 3776
linear solve p 8279227
time step continuity errors : sum local = 8.07743e-11, global = -1.09608e-21, cumulative = -1.62574e-20
ExecutionTime = 856.2 s  ClockTime = 859 s

Time = 0.00022

Courant Number mean: 0.00356753 max: 0.0956283
DILUPBiCGStab:  Solving for Ux, Initial residual = 0.0139771, Final residual = 3.5994e-05, No Iterations 5
DILUPBiCGStab:  Solving for Uy, Initial residual = 0.024081, Final residual = 3.29427e-05, No Iterations 5
DILUPBiCGStab:  Solving for Uz, Initial residual = 0.0431119, Final residual = 0.000149706, No Iterations 5
linear solve U 2963009
[OGL LOG][Proc: 0]global_index_init : 39 mu s
[OGL LOG][Proc: 0]global_index_init : 6 mu s
[OGL LOG][Proc: 0]update_host_matrix_data : 52151 mu s
[OGL LOG][Proc: 0]gather_global_matrix : 0 mu s
[OGL LOG][Proc: 0]init_precond : 41 mu s
[OGL LOG][Proc: 0]generate_solver : 1 mu s
[OGL LOG][Proc: 0]solve : 5589485 mu s
[OGL LOG][Proc: 0]copy_x_back : 5203 mu s
nonecudaGKOCG:  Solving for p, Initial residual = 0.0596084, Final residual = 9.73407e-05, No Iterations 3625
linear solve p 8040752
time step continuity errors : sum local = 1.13356e-10, global = -1.25198e-21, cumulative = -1.75094e-20
[OGL LOG][Proc: 0]global_index_init : 38 mu s
[OGL LOG][Proc: 0]global_index_init : 6 mu s
[OGL LOG][Proc: 0]update_host_matrix_data : 53408 mu s
[OGL LOG][Proc: 0]gather_global_matrix : 0 mu s
[OGL LOG][Proc: 0]init_precond : 38 mu s
[OGL LOG][Proc: 0]generate_solver : 2 mu s
[OGL LOG][Proc: 0]solve : 5612915 mu s
[OGL LOG][Proc: 0]copy_x_back : 5780 mu s
nonecudaGKOCG:  Solving for p, Initial residual = 0.0475575, Final residual = 7.96934e-05, No Iterations 3626
linear solve p 8050398
time step continuity errors : sum local = 9.26768e-11, global = -1.23182e-21, cumulative = -1.87412e-20
ExecutionTime = 877.51 s  ClockTime = 880 s

Time = 0.00024

Courant Number mean: 0.00372664 max: 0.0958365
DILUPBiCGStab:  Solving for Ux, Initial residual = 0.0128281, Final residual = 3.15311e-05, No Iterations 5
DILUPBiCGStab:  Solving for Uy, Initial residual = 0.0217984, Final residual = 2.69979e-05, No Iterations 5
DILUPBiCGStab:  Solving for Uz, Initial residual = 0.0397716, Final residual = 0.000127377, No Iterations 5
linear solve U 2697368
[OGL LOG][Proc: 0]global_index_init : 28 mu s
[OGL LOG][Proc: 0]global_index_init : 24 mu s
[OGL LOG][Proc: 0]update_host_matrix_data : 51330 mu s
[OGL LOG][Proc: 0]gather_global_matrix : 0 mu s
[OGL LOG][Proc: 0]init_precond : 36 mu s
[OGL LOG][Proc: 0]generate_solver : 2 mu s
[OGL LOG][Proc: 0]solve : 5817919 mu s
[OGL LOG][Proc: 0]copy_x_back : 5316 mu s
nonecudaGKOCG:  Solving for p, Initial residual = 0.0447957, Final residual = 4.71691e-05, No Iterations 3771
linear solve p 8266556
time step continuity errors : sum local = 5.44428e-11, global = -1.3303e-21, cumulative = -2.00715e-20
[OGL LOG][Proc: 0]global_index_init : 35 mu s
[OGL LOG][Proc: 0]global_index_init : 14 mu s
[OGL LOG][Proc: 0]update_host_matrix_data : 53924 mu s
[OGL LOG][Proc: 0]gather_global_matrix : 0 mu s
[OGL LOG][Proc: 0]init_precond : 37 mu s
[OGL LOG][Proc: 0]generate_solver : 1 mu s
[OGL LOG][Proc: 0]solve : 5801072 mu s
[OGL LOG][Proc: 0]copy_x_back : 7546 mu s
nonecudaGKOCG:  Solving for p, Initial residual = 0.0368824, Final residual = 4.61912e-05, No Iterations 3751
linear solve p 8243399
time step continuity errors : sum local = 5.33235e-11, global = -1.21955e-21, cumulative = -2.12911e-20
ExecutionTime = 898.93 s  ClockTime = 902 s

Time = 0.00026

Courant Number mean: 0.0038769 max: 0.0960164
DILUPBiCGStab:  Solving for Ux, Initial residual = 0.011856, Final residual = 2.75375e-05, No Iterations 5
DILUPBiCGStab:  Solving for Uy, Initial residual = 0.0199094, Final residual = 2.36547e-05, No Iterations 5
DILUPBiCGStab:  Solving for Uz, Initial residual = 0.0365351, Final residual = 0.000108429, No Iterations 5
linear solve U 2690979
[OGL LOG][Proc: 0]global_index_init : 32 mu s
[OGL LOG][Proc: 0]global_index_init : 8 mu s
[OGL LOG][Proc: 0]update_host_matrix_data : 52415 mu s
[OGL LOG][Proc: 0]gather_global_matrix : 0 mu s
[OGL LOG][Proc: 0]init_precond : 44 mu s
[OGL LOG][Proc: 0]generate_solver : 1 mu s
[OGL LOG][Proc: 0]solve : 5779532 mu s
[OGL LOG][Proc: 0]copy_x_back : 5241 mu s
nonecudaGKOCG:  Solving for p, Initial residual = 0.0336031, Final residual = 4.03602e-05, No Iterations 3751
linear solve p 8227073
time step continuity errors : sum local = 4.61449e-11, global = -1.30927e-21, cumulative = -2.26003e-20
[OGL LOG][Proc: 0]global_index_init : 30 mu s
[OGL LOG][Proc: 0]global_index_init : 10 mu s
[OGL LOG][Proc: 0]update_host_matrix_data : 53867 mu s
[OGL LOG][Proc: 0]gather_global_matrix : 0 mu s
[OGL LOG][Proc: 0]init_precond : 33 mu s
[OGL LOG][Proc: 0]generate_solver : 1 mu s
[OGL LOG][Proc: 0]solve : 5808366 mu s
[OGL LOG][Proc: 0]copy_x_back : 5090 mu s
nonecudaGKOCG:  Solving for p, Initial residual = 0.0276021, Final residual = 3.67069e-05, No Iterations 3751
linear solve p 8242939
time step continuity errors : sum local = 4.19375e-11, global = -1.29499e-21, cumulative = -2.38953e-20
ExecutionTime = 920.39 s  ClockTime = 923 s

Time = 0.00028

Courant Number mean: 0.00401937 max: 0.0961736
DILUPBiCGStab:  Solving for Ux, Initial residual = 0.0110265, Final residual = 2.47298e-05, No Iterations 5
DILUPBiCGStab:  Solving for Uy, Initial residual = 0.0183163, Final residual = 2.03953e-05, No Iterations 5
DILUPBiCGStab:  Solving for Uz, Initial residual = 0.033937, Final residual = 9.41689e-05, No Iterations 5
linear solve U 2705189
[OGL LOG][Proc: 0]global_index_init : 30 mu s
[OGL LOG][Proc: 0]global_index_init : 16 mu s
[OGL LOG][Proc: 0]update_host_matrix_data : 51572 mu s
[OGL LOG][Proc: 0]gather_global_matrix : 0 mu s
[OGL LOG][Proc: 0]init_precond : 40 mu s
[OGL LOG][Proc: 0]generate_solver : 3 mu s
[OGL LOG][Proc: 0]solve : 5784914 mu s
[OGL LOG][Proc: 0]copy_x_back : 5435 mu s
nonecudaGKOCG:  Solving for p, Initial residual = 0.0272343, Final residual = 4.43797e-05, No Iterations 3751
linear solve p 8233789
time step continuity errors : sum local = 5.06182e-11, global = -1.3363e-21, cumulative = -2.52316e-20
[OGL LOG][Proc: 0]global_index_init : 32 mu s
[OGL LOG][Proc: 0]global_index_init : 7 mu s
[OGL LOG][Proc: 0]update_host_matrix_data : 54580 mu s
[OGL LOG][Proc: 0]gather_global_matrix : 0 mu s
[OGL LOG][Proc: 0]init_precond : 35 mu s
[OGL LOG][Proc: 0]generate_solver : 1 mu s
[OGL LOG][Proc: 0]solve : 5801788 mu s
[OGL LOG][Proc: 0]copy_x_back : 5193 mu s
nonecudaGKOCG:  Solving for p, Initial residual = 0.0233082, Final residual = 4.35006e-05, No Iterations 3751
linear solve p 8240839
time step continuity errors : sum local = 4.96367e-11, global = -1.24162e-21, cumulative = -2.64732e-20
ExecutionTime = 941.79 s  ClockTime = 944 s

Time = 0.0003

Courant Number mean: 0.004155 max: 0.0963128
DILUPBiCGStab:  Solving for Ux, Initial residual = 0.0103066, Final residual = 2.21907e-05, No Iterations 5
DILUPBiCGStab:  Solving for Uy, Initial residual = 0.0169574, Final residual = 1.81581e-05, No Iterations 5
DILUPBiCGStab:  Solving for Uz, Initial residual = 0.0316162, Final residual = 8.22456e-05, No Iterations 5
linear solve U 2690572
[OGL LOG][Proc: 0]global_index_init : 37 mu s
[OGL LOG][Proc: 0]global_index_init : 4 mu s
[OGL LOG][Proc: 0]update_host_matrix_data : 53534 mu s
[OGL LOG][Proc: 0]gather_global_matrix : 0 mu s
[OGL LOG][Proc: 0]init_precond : 38 mu s
[OGL LOG][Proc: 0]generate_solver : 1 mu s
[OGL LOG][Proc: 0]solve : 5775062 mu s
[OGL LOG][Proc: 0]copy_x_back : 7836 mu s
nonecudaGKOCG:  Solving for p, Initial residual = 0.0206059, Final residual = 4.20477e-05, No Iterations 3751
linear solve p 8288075
time step continuity errors : sum local = 4.76816e-11, global = -1.35942e-21, cumulative = -2.78326e-20
[OGL LOG][Proc: 0]global_index_init : 35 mu s
[OGL LOG][Proc: 0]global_index_init : 14 mu s
[OGL LOG][Proc: 0]update_host_matrix_data : 54201 mu s
[OGL LOG][Proc: 0]gather_global_matrix : 0 mu s
[OGL LOG][Proc: 0]init_precond : 36 mu s
[OGL LOG][Proc: 0]generate_solver : 1 mu s
[OGL LOG][Proc: 0]solve : 5795634 mu s
[OGL LOG][Proc: 0]copy_x_back : 5451 mu s
nonecudaGKOCG:  Solving for p, Initial residual = 0.0178342, Final residual = 4.06582e-05, No Iterations 3751
linear solve p 8236504
time step continuity errors : sum local = 4.60898e-11, global = -1.41046e-21, cumulative = -2.92431e-20
ExecutionTime = 963.24 s  ClockTime = 966 s

Time = 0.00032

Courant Number mean: 0.00428461 max: 0.0964369
DILUPBiCGStab:  Solving for Ux, Initial residual = 0.00967763, Final residual = 2.01921e-05, No Iterations 5
DILUPBiCGStab:  Solving for Uy, Initial residual = 0.0157826, Final residual = 1.61299e-05, No Iterations 5
DILUPBiCGStab:  Solving for Uz, Initial residual = 0.0296153, Final residual = 7.26497e-05, No Iterations 5
linear solve U 2697993
[OGL LOG][Proc: 0]global_index_init : 30 mu s
[OGL LOG][Proc: 0]global_index_init : 9 mu s
[OGL LOG][Proc: 0]update_host_matrix_data : 52568 mu s
[OGL LOG][Proc: 0]gather_global_matrix : 0 mu s
[OGL LOG][Proc: 0]init_precond : 43 mu s
[OGL LOG][Proc: 0]generate_solver : 1 mu s
[OGL LOG][Proc: 0]solve : 5545595 mu s
[OGL LOG][Proc: 0]copy_x_back : 5298 mu s
nonecudaGKOCG:  Solving for p, Initial residual = 0.0184133, Final residual = 9.1156e-05, No Iterations 3601
linear solve p 7993288
time step continuity errors : sum local = 1.03418e-10, global = -1.49995e-21, cumulative = -3.07431e-20
[OGL LOG][Proc: 0]global_index_init : 31 mu s
[OGL LOG][Proc: 0]global_index_init : 11 mu s
[OGL LOG][Proc: 0]update_host_matrix_data : 53292 mu s
[OGL LOG][Proc: 0]gather_global_matrix : 0 mu s
[OGL LOG][Proc: 0]init_precond : 35 mu s
[OGL LOG][Proc: 0]generate_solver : 1 mu s
[OGL LOG][Proc: 0]solve : 5576087 mu s
[OGL LOG][Proc: 0]copy_x_back : 5123 mu s
nonecudaGKOCG:  Solving for p, Initial residual = 0.0164515, Final residual = 8.48323e-05, No Iterations 3601
linear solve p 8099784
time step continuity errors : sum local = 9.62892e-11, global = -1.44376e-21, cumulative = -3.21868e-20
ExecutionTime = 984.26 s  ClockTime = 987 s

Time = 0.00034

Courant Number mean: 0.00440876 max: 0.0965486
DILUPBiCGStab:  Solving for Ux, Initial residual = 0.00912163, Final residual = 1.83809e-05, No Iterations 5
DILUPBiCGStab:  Solving for Uy, Initial residual = 0.0147583, Final residual = 1.45782e-05, No Iterations 5
DILUPBiCGStab:  Solving for Uz, Initial residual = 0.0277299, Final residual = 6.44163e-05, No Iterations 5
linear solve U 2703817
[OGL LOG][Proc: 0]global_index_init : 33 mu s
[OGL LOG][Proc: 0]global_index_init : 9 mu s
[OGL LOG][Proc: 0]update_host_matrix_data : 52908 mu s
[OGL LOG][Proc: 0]gather_global_matrix : 0 mu s
[OGL LOG][Proc: 0]init_precond : 40 mu s
[OGL LOG][Proc: 0]generate_solver : 1 mu s
[OGL LOG][Proc: 0]solve : 5552136 mu s
[OGL LOG][Proc: 0]copy_x_back : 8400 mu s
nonecudaGKOCG:  Solving for p, Initial residual = 0.0144203, Final residual = 7.76965e-05, No Iterations 3601
linear solve p 8003851
time step continuity errors : sum local = 8.78741e-11, global = -1.46352e-21, cumulative = -3.36503e-20
[OGL LOG][Proc: 0]global_index_init : 31 mu s
[OGL LOG][Proc: 0]global_index_init : 12 mu s
[OGL LOG][Proc: 0]update_host_matrix_data : 53714 mu s
[OGL LOG][Proc: 0]gather_global_matrix : 0 mu s
[OGL LOG][Proc: 0]init_precond : 39 mu s
[OGL LOG][Proc: 0]generate_solver : 2 mu s
[OGL LOG][Proc: 0]solve : 5579044 mu s
[OGL LOG][Proc: 0]copy_x_back : 5142 mu s
nonecudaGKOCG:  Solving for p, Initial residual = 0.0132112, Final residual = 7.38968e-05, No Iterations 3601
linear solve p 8020111
time step continuity errors : sum local = 8.35669e-11, global = -1.48478e-21, cumulative = -3.51351e-20
ExecutionTime = 1005.19 s  ClockTime = 1008 s

Time = 0.00036

Courant Number mean: 0.00452796 max: 0.0966499
DILUPBiCGStab:  Solving for Ux, Initial residual = 0.00862745, Final residual = 1.68603e-05, No Iterations 5
DILUPBiCGStab:  Solving for Uy, Initial residual = 0.0138565, Final residual = 1.32091e-05, No Iterations 5
DILUPBiCGStab:  Solving for Uz, Initial residual = 0.0261605, Final residual = 5.7679e-05, No Iterations 5
linear solve U 2855407
[OGL LOG][Proc: 0]global_index_init : 28 mu s
[OGL LOG][Proc: 0]global_index_init : 20 mu s
[OGL LOG][Proc: 0]update_host_matrix_data : 53056 mu s
[OGL LOG][Proc: 0]gather_global_matrix : 0 mu s
[OGL LOG][Proc: 0]init_precond : 37 mu s
[OGL LOG][Proc: 0]generate_solver : 1 mu s
[OGL LOG][Proc: 0]solve : 5555850 mu s
[OGL LOG][Proc: 0]copy_x_back : 5295 mu s
nonecudaGKOCG:  Solving for p, Initial residual = 0.0137625, Final residual = 7.5186e-05, No Iterations 3601
linear solve p 8006133
time step continuity errors : sum local = 8.51119e-11, global = -1.56519e-21, cumulative = -3.67003e-20
[OGL LOG][Proc: 0]global_index_init : 27 mu s
[OGL LOG][Proc: 0]global_index_init : 9 mu s
[OGL LOG][Proc: 0]update_host_matrix_data : 53582 mu s
[OGL LOG][Proc: 0]gather_global_matrix : 0 mu s
[OGL LOG][Proc: 0]init_precond : 43 mu s
[OGL LOG][Proc: 0]generate_solver : 1 mu s
[OGL LOG][Proc: 0]solve : 5575658 mu s
[OGL LOG][Proc: 0]copy_x_back : 5211 mu s
nonecudaGKOCG:  Solving for p, Initial residual = 0.0127166, Final residual = 6.99227e-05, No Iterations 3601
linear solve p 8089077
time step continuity errors : sum local = 7.91864e-11, global = -1.48002e-21, cumulative = -3.81803e-20
ExecutionTime = 1026.37 s  ClockTime = 1029 s

Time = 0.00038

Courant Number mean: 0.00464275 max: 0.0967421
DILUPBiCGStab:  Solving for Ux, Initial residual = 0.00818432, Final residual = 1.54868e-05, No Iterations 5
DILUPBiCGStab:  Solving for Uy, Initial residual = 0.0130568, Final residual = 1.20968e-05, No Iterations 5
DILUPBiCGStab:  Solving for Uz, Initial residual = 0.0247876, Final residual = 5.19659e-05, No Iterations 5
linear solve U 2697102
[OGL LOG][Proc: 0]global_index_init : 34 mu s
[OGL LOG][Proc: 0]global_index_init : 12 mu s
[OGL LOG][Proc: 0]update_host_matrix_data : 52443 mu s
[OGL LOG][Proc: 0]gather_global_matrix : 0 mu s
[OGL LOG][Proc: 0]init_precond : 37 mu s
[OGL LOG][Proc: 0]generate_solver : 2 mu s
[OGL LOG][Proc: 0]solve : 5567277 mu s
[OGL LOG][Proc: 0]copy_x_back : 5162 mu s
nonecudaGKOCG:  Solving for p, Initial residual = 0.0111095, Final residual = 7.26488e-05, No Iterations 3601
linear solve p 8017868
time step continuity errors : sum local = 8.20995e-11, global = -1.52141e-21, cumulative = -3.97017e-20
[OGL LOG][Proc: 0]global_index_init : 36 mu s
[OGL LOG][Proc: 0]global_index_init : 15 mu s
[OGL LOG][Proc: 0]update_host_matrix_data : 53328 mu s
[OGL LOG][Proc: 0]gather_global_matrix : 0 mu s
[OGL LOG][Proc: 0]init_precond : 37 mu s
[OGL LOG][Proc: 0]generate_solver : 1 mu s
[OGL LOG][Proc: 0]solve : 5567889 mu s
[OGL LOG][Proc: 0]copy_x_back : 7651 mu s
nonecudaGKOCG:  Solving for p, Initial residual = 0.0105618, Final residual = 6.67112e-05, No Iterations 3601
linear solve p 8008938
time step continuity errors : sum local = 7.53915e-11, global = -1.49602e-21, cumulative = -4.11978e-20
ExecutionTime = 1047.32 s  ClockTime = 1050 s

Time = 0.0004

Courant Number mean: 0.00475339 max: 0.0968267
DILUPBiCGStab:  Solving for Ux, Initial residual = 0.00778513, Final residual = 1.42955e-05, No Iterations 5
DILUPBiCGStab:  Solving for Uy, Initial residual = 0.0123427, Final residual = 1.11212e-05, No Iterations 5
DILUPBiCGStab:  Solving for Uz, Initial residual = 0.0235402, Final residual = 4.70334e-05, No Iterations 5
linear solve U 2691495
[OGL LOG][Proc: 0]global_index_init : 36 mu s
[OGL LOG][Proc: 0]global_index_init : 7 mu s
[OGL LOG][Proc: 0]update_host_matrix_data : 52145 mu s
[OGL LOG][Proc: 0]gather_global_matrix : 0 mu s
[OGL LOG][Proc: 0]init_precond : 38 mu s
[OGL LOG][Proc: 0]generate_solver : 1 mu s
[OGL LOG][Proc: 0]solve : 4465777 mu s
[OGL LOG][Proc: 0]copy_x_back : 5257 mu s
nonecudaGKOCG:  Solving for p, Initial residual = 0.0110581, Final residual = 8.97826e-05, No Iterations 2881
linear solve p 6921184
time step continuity errors : sum local = 1.01943e-10, global = -1.57547e-21, cumulative = -4.27732e-20
[OGL LOG][Proc: 0]global_index_init : 28 mu s
[OGL LOG][Proc: 0]global_index_init : 8 mu s
[OGL LOG][Proc: 0]update_host_matrix_data : 53558 mu s
[OGL LOG][Proc: 0]gather_global_matrix : 0 mu s
[OGL LOG][Proc: 0]init_precond : 34 mu s
[OGL LOG][Proc: 0]generate_solver : 1 mu s
[OGL LOG][Proc: 0]solve : 3771937 mu s
[OGL LOG][Proc: 0]copy_x_back : 5179 mu s
nonecudaGKOCG:  Solving for p, Initial residual = 0.0104378, Final residual = 1.55693e-06, No Iterations 2416
linear solve p 6208566
time step continuity errors : sum local = 1.87039e-12, global = -1.65444e-21, cumulative = -4.44277e-20
ExecutionTime = 1065.37 s  ClockTime = 1068 s

End

Finalising parallel run
================================================================================

============================= JOB FEEDBACK =============================

Job ID: 1747945
Cluster: hk
User/Group: eq4036/hk-project-test-fine
State: COMPLETED (exit code 0)
Partition: accelerated
Nodes: 8
Cores per node: 152
Nodelist: hkn[0601-0608]
CPU Utilized: 02:01:14
CPU Efficiency: 0.32% of 26-00:12:48 core-walltime
Job Wall-clock time: 00:30:48
Starttime: Fri May 27 07:05:24 2022
Endtime: Fri May 27 07:36:12 2022
Memory Utilized: 30.03 GB
Memory Efficiency: 0.77% of 3.81 TB
Energy Consumed: 11272803 Joule / 3131.33416666667 Watthours
Average node power draw: 6100.00162337662 Watt
hash: e82cf1c607d70125ddb9573a7fcf62ed
/*---------------------------------------------------------------------------*\
| =========                 |                                                 |
| \\      /  F ield         | OpenFOAM: The Open Source CFD Toolbox           |
[...]
nonecudaGKOCG:  Solving for p, Initial residual = 0.0133018, Final residual = 5.34138e-05, No Iterations 701
linear solve p 467803
time step continuity errors : sum local = 1.28824e-09, global = -2.32068e-22, cumulative = -5.20294e-21
ExecutionTime = 13.44 s  ClockTime = 14 s

Time = 0.0009

Courant Number mean: 0.00631847 max: 0.0883467
DILUPBiCGStab:  Solving for Ux, Initial residual = 0.0205619, Final residual = 1.36208e-07, No Iterations 5
DILUPBiCGStab:  Solving for Uy, Initial residual = 0.0286477, Final residual = 4.5356e-08, No Iterations 5
DILUPBiCGStab:  Solving for Uz, Initial residual = 0.0517461, Final residual = 1.36595e-07, No Iterations 5
linear solve U 123212
[OGL LOG][Proc: 0]global_index_init : 8 mu s
[OGL LOG][Proc: 0]global_index_init : 1 mu s
[OGL LOG][Proc: 0]update_host_matrix_data : 3698 mu s
[OGL LOG][Proc: 0]gather_global_matrix : 0 mu s
[OGL LOG][Proc: 0]init_precond : 30 mu s
[OGL LOG][Proc: 0]generate_solver : 1 mu s
[OGL LOG][Proc: 0]solve : 407635 mu s
[OGL LOG][Proc: 0]copy_x_back : 339 mu s
nonecudaGKOCG:  Solving for p, Initial residual = 0.0138335, Final residual = 5.21259e-05, No Iterations 701
linear solve p 467508
time step continuity errors : sum local = 1.25958e-09, global = -1.95154e-22, cumulative = -5.39809e-21
[OGL LOG][Proc: 0]global_index_init : 6 mu s
[OGL LOG][Proc: 0]global_index_init : 1 mu s
[OGL LOG][Proc: 0]update_host_matrix_data : 3637 mu s
[OGL LOG][Proc: 0]gather_global_matrix : 0 mu s
[OGL LOG][Proc: 0]init_precond : 36 mu s
[OGL LOG][Proc: 0]generate_solver : 1 mu s
[OGL LOG][Proc: 0]solve : 408227 mu s
[OGL LOG][Proc: 0]copy_x_back : 366 mu s
nonecudaGKOCG:  Solving for p, Initial residual = 0.0111256, Final residual = 3.94862e-05, No Iterations 701
linear solve p 468194
time step continuity errors : sum local = 9.56472e-10, global = -1.35549e-21, cumulative = -6.75358e-21
ExecutionTime = 14.59 s  ClockTime = 16 s

Time = 0.001

Courant Number mean: 0.00664438 max: 0.0890141
DILUPBiCGStab:  Solving for Ux, Initial residual = 0.0181855, Final residual = 1.0968e-07, No Iterations 5
DILUPBiCGStab:  Solving for Uy, Initial residual = 0.0252108, Final residual = 4.07549e-08, No Iterations 5
DILUPBiCGStab:  Solving for Uz, Initial residual = 0.0463196, Final residual = 1.15964e-07, No Iterations 5
linear solve U 124822
[OGL LOG][Proc: 0]global_index_init : 7 mu s
[OGL LOG][Proc: 0]global_index_init : 1 mu s
[OGL LOG][Proc: 0]update_host_matrix_data : 3633 mu s
[OGL LOG][Proc: 0]gather_global_matrix : 0 mu s
[OGL LOG][Proc: 0]init_precond : 29 mu s
[OGL LOG][Proc: 0]generate_solver : 1 mu s
[OGL LOG][Proc: 0]solve : 408609 mu s
[OGL LOG][Proc: 0]copy_x_back : 725 mu s
nonecudaGKOCG:  Solving for p, Initial residual = 0.0117502, Final residual = 4.27283e-05, No Iterations 701
linear solve p 469739
time step continuity errors : sum local = 1.03674e-09, global = 6.10094e-22, cumulative = -6.14349e-21
[OGL LOG][Proc: 0]global_index_init : 5 mu s
[OGL LOG][Proc: 0]global_index_init : 1 mu s
[OGL LOG][Proc: 0]update_host_matrix_data : 3499 mu s
[OGL LOG][Proc: 0]gather_global_matrix : 0 mu s
[OGL LOG][Proc: 0]init_precond : 30 mu s
[OGL LOG][Proc: 0]generate_solver : 1 mu s
[OGL LOG][Proc: 0]solve : 408040 mu s
[OGL LOG][Proc: 0]copy_x_back : 347 mu s
nonecudaGKOCG:  Solving for p, Initial residual = 0.00948927, Final residual = 3.26182e-05, No Iterations 701
linear solve p 470605
time step continuity errors : sum local = 7.93024e-10, global = -1.25495e-22, cumulative = -6.26898e-21
ExecutionTime = 15.75 s  ClockTime = 17 s

Time = 0.0011

Courant Number mean: 0.00694533 max: 0.0895673
DILUPBiCGStab:  Solving for Ux, Initial residual = 0.0162987, Final residual = 8.99137e-08, No Iterations 5
DILUPBiCGStab:  Solving for Uy, Initial residual = 0.0224922, Final residual = 3.70453e-08, No Iterations 5
DILUPBiCGStab:  Solving for Uz, Initial residual = 0.0418841, Final residual = 1.0127e-07, No Iterations 5
linear solve U 122709
[OGL LOG][Proc: 0]global_index_init : 9 mu s
[OGL LOG][Proc: 0]global_index_init : 2 mu s
[OGL LOG][Proc: 0]update_host_matrix_data : 3698 mu s
[OGL LOG][Proc: 0]gather_global_matrix : 0 mu s
[OGL LOG][Proc: 0]init_precond : 31 mu s
[OGL LOG][Proc: 0]generate_solver : 1 mu s
[OGL LOG][Proc: 0]solve : 409301 mu s
[OGL LOG][Proc: 0]copy_x_back : 358 mu s
nonecudaGKOCG:  Solving for p, Initial residual = 0.0101622, Final residual = 3.59013e-05, No Iterations 701
linear solve p 469047
time step continuity errors : sum local = 8.74145e-10, global = -8.06893e-22, cumulative = -7.07588e-21
[OGL LOG][Proc: 0]global_index_init : 13 mu s
[OGL LOG][Proc: 0]global_index_init : 1 mu s
[OGL LOG][Proc: 0]update_host_matrix_data : 3654 mu s
[OGL LOG][Proc: 0]gather_global_matrix : 0 mu s
[OGL LOG][Proc: 0]init_precond : 31 mu s
[OGL LOG][Proc: 0]generate_solver : 1 mu s
[OGL LOG][Proc: 0]solve : 393314 mu s
[OGL LOG][Proc: 0]copy_x_back : 363 mu s
nonecudaGKOCG:  Solving for p, Initial residual = 0.00822956, Final residual = 9.85843e-05, No Iterations 673
linear solve p 453435
time step continuity errors : sum local = 2.40478e-09, global = -3.82827e-22, cumulative = -7.4587e-21
ExecutionTime = 16.88 s  ClockTime = 18 s

Time = 0.0012

Courant Number mean: 0.00722379 max: 0.0900356
DILUPBiCGStab:  Solving for Ux, Initial residual = 0.0147485, Final residual = 7.50073e-08, No Iterations 5
DILUPBiCGStab:  Solving for Uy, Initial residual = 0.0202882, Final residual = 3.39465e-08, No Iterations 5
DILUPBiCGStab:  Solving for Uz, Initial residual = 0.0381777, Final residual = 9.02223e-08, No Iterations 5
linear solve U 125194
[OGL LOG][Proc: 0]global_index_init : 8 mu s
[OGL LOG][Proc: 0]global_index_init : 2 mu s
[OGL LOG][Proc: 0]update_host_matrix_data : 3650 mu s
[OGL LOG][Proc: 0]gather_global_matrix : 0 mu s
[OGL LOG][Proc: 0]init_precond : 29 mu s
[OGL LOG][Proc: 0]generate_solver : 1 mu s
[OGL LOG][Proc: 0]solve : 394945 mu s
[OGL LOG][Proc: 0]copy_x_back : 365 mu s
nonecudaGKOCG:  Solving for p, Initial residual = 0.00901376, Final residual = 9.19405e-05, No Iterations 677
linear solve p 454496
time step continuity errors : sum local = 2.24573e-09, global = 2.3932e-22, cumulative = -7.21938e-21
[OGL LOG][Proc: 0]global_index_init : 10 mu s
[OGL LOG][Proc: 0]global_index_init : 1 mu s
[OGL LOG][Proc: 0]update_host_matrix_data : 3659 mu s
[OGL LOG][Proc: 0]gather_global_matrix : 0 mu s
[OGL LOG][Proc: 0]init_precond : 55 mu s
[OGL LOG][Proc: 0]generate_solver : 1 mu s
[OGL LOG][Proc: 0]solve : 393872 mu s
[OGL LOG][Proc: 0]copy_x_back : 371 mu s
nonecudaGKOCG:  Solving for p, Initial residual = 0.00733582, Final residual = 7.54365e-05, No Iterations 676
linear solve p 454376
time step continuity errors : sum local = 1.84525e-09, global = -9.30135e-22, cumulative = -8.14952e-21
ExecutionTime = 18 s  ClockTime = 19 s

Time = 0.0013

Courant Number mean: 0.00748301 max: 0.0904387
DILUPBiCGStab:  Solving for Ux, Initial residual = 0.0134671, Final residual = 6.36023e-08, No Iterations 5
DILUPBiCGStab:  Solving for Uy, Initial residual = 0.0184652, Final residual = 3.12999e-08, No Iterations 5
DILUPBiCGStab:  Solving for Uz, Initial residual = 0.035049, Final residual = 8.14987e-08, No Iterations 5
linear solve U 122653
[OGL LOG][Proc: 0]global_index_init : 8 mu s
[OGL LOG][Proc: 0]global_index_init : 1 mu s
[OGL LOG][Proc: 0]update_host_matrix_data : 3883 mu s
[OGL LOG][Proc: 0]gather_global_matrix : 0 mu s
[OGL LOG][Proc: 0]init_precond : 30 mu s
[OGL LOG][Proc: 0]generate_solver : 1 mu s
[OGL LOG][Proc: 0]solve : 393816 mu s
[OGL LOG][Proc: 0]copy_x_back : 372 mu s
nonecudaGKOCG:  Solving for p, Initial residual = 0.00804821, Final residual = 8.89943e-05, No Iterations 676
linear solve p 453261
time step continuity errors : sum local = 2.17948e-09, global = -6.01042e-22, cumulative = -8.75056e-21
[OGL LOG][Proc: 0]global_index_init : 7 mu s
[OGL LOG][Proc: 0]global_index_init : 1 mu s
[OGL LOG][Proc: 0]update_host_matrix_data : 3690 mu s
[OGL LOG][Proc: 0]gather_global_matrix : 0 mu s
[OGL LOG][Proc: 0]init_precond : 30 mu s
[OGL LOG][Proc: 0]generate_solver : 1 mu s
[OGL LOG][Proc: 0]solve : 393998 mu s
[OGL LOG][Proc: 0]copy_x_back : 360 mu s
nonecudaGKOCG:  Solving for p, Initial residual = 0.00657117, Final residual = 6.12675e-05, No Iterations 676
linear solve p 454592
time step continuity errors : sum local = 1.50233e-09, global = -6.61662e-22, cumulative = -9.41222e-21
ExecutionTime = 19.13 s  ClockTime = 20 s

Time = 0.0014

Courant Number mean: 0.00772783 max: 0.0907903
DILUPBiCGStab:  Solving for Ux, Initial residual = 0.0123794, Final residual = 5.46776e-08, No Iterations 5
DILUPBiCGStab:  Solving for Uy, Initial residual = 0.0169325, Final residual = 2.90027e-08, No Iterations 5
DILUPBiCGStab:  Solving for Uz, Initial residual = 0.0323896, Final residual = 7.43378e-08, No Iterations 5
linear solve U 123612
[OGL LOG][Proc: 0]global_index_init : 10 mu s
[OGL LOG][Proc: 0]global_index_init : 1 mu s
[OGL LOG][Proc: 0]update_host_matrix_data : 3644 mu s
[OGL LOG][Proc: 0]gather_global_matrix : 0 mu s
[OGL LOG][Proc: 0]init_precond : 30 mu s
[OGL LOG][Proc: 0]generate_solver : 1 mu s
[OGL LOG][Proc: 0]solve : 393601 mu s
[OGL LOG][Proc: 0]copy_x_back : 374 mu s
nonecudaGKOCG:  Solving for p, Initial residual = 0.00719063, Final residual = 8.14994e-05, No Iterations 676
linear solve p 452702
time step continuity errors : sum local = 2.00042e-09, global = -1.71272e-21, cumulative = -1.11249e-20
[OGL LOG][Proc: 0]global_index_init : 7 mu s
[OGL LOG][Proc: 0]global_index_init : 2 mu s
[OGL LOG][Proc: 0]update_host_matrix_data : 3676 mu s
[OGL LOG][Proc: 0]gather_global_matrix : 0 mu s
[OGL LOG][Proc: 0]init_precond : 43 mu s
[OGL LOG][Proc: 0]generate_solver : 1 mu s
[OGL LOG][Proc: 0]solve : 394114 mu s
[OGL LOG][Proc: 0]copy_x_back : 347 mu s
nonecudaGKOCG:  Solving for p, Initial residual = 0.00589757, Final residual = 5.38963e-05, No Iterations 676
linear solve p 454023
time step continuity errors : sum local = 1.32438e-09, global = -1.66142e-21, cumulative = -1.27864e-20
ExecutionTime = 20.24 s  ClockTime = 21 s

Time = 0.0015

Courant Number mean: 0.00795861 max: 0.0911006
DILUPBiCGStab:  Solving for Ux, Initial residual = 0.0114471, Final residual = 4.75486e-08, No Iterations 5
DILUPBiCGStab:  Solving for Uy, Initial residual = 0.0156259, Final residual = 2.69831e-08, No Iterations 5
DILUPBiCGStab:  Solving for Uz, Initial residual = 0.0300855, Final residual = 6.83244e-08, No Iterations 5
linear solve U 123595
[OGL LOG][Proc: 0]global_index_init : 7 mu s
[OGL LOG][Proc: 0]global_index_init : 1 mu s
[OGL LOG][Proc: 0]update_host_matrix_data : 3758 mu s
[OGL LOG][Proc: 0]gather_global_matrix : 0 mu s
[OGL LOG][Proc: 0]init_precond : 46 mu s
[OGL LOG][Proc: 0]generate_solver : 1 mu s
[OGL LOG][Proc: 0]solve : 394423 mu s
[OGL LOG][Proc: 0]copy_x_back : 344 mu s
nonecudaGKOCG:  Solving for p, Initial residual = 0.00650135, Final residual = 7.35596e-05, No Iterations 676
linear solve p 453451
time step continuity errors : sum local = 1.80919e-09, global = -8.2782e-22, cumulative = -1.36142e-20
[OGL LOG][Proc: 0]global_index_init : 29 mu s
[OGL LOG][Proc: 0]global_index_init : 2 mu s
[OGL LOG][Proc: 0]update_host_matrix_data : 3684 mu s
[OGL LOG][Proc: 0]gather_global_matrix : 0 mu s
[OGL LOG][Proc: 0]init_precond : 37 mu s
[OGL LOG][Proc: 0]generate_solver : 1 mu s
[OGL LOG][Proc: 0]solve : 319066 mu s
[OGL LOG][Proc: 0]copy_x_back : 343 mu s
nonecudaGKOCG:  Solving for p, Initial residual = 0.00534396, Final residual = 9.87874e-05, No Iterations 541
linear solve p 379310
time step continuity errors : sum local = 2.46777e-09, global = -1.27846e-21, cumulative = -1.48926e-20
ExecutionTime = 21.29 s  ClockTime = 22 s

Time = 0.0016

Courant Number mean: 0.00817648 max: 0.091377
DILUPBiCGStab:  Solving for Ux, Initial residual = 0.0106402, Final residual = 4.17748e-08, No Iterations 5
DILUPBiCGStab:  Solving for Uy, Initial residual = 0.0145001, Final residual = 2.51929e-08, No Iterations 5
DILUPBiCGStab:  Solving for Uz, Initial residual = 0.0280954, Final residual = 6.33606e-08, No Iterations 5
linear solve U 123727
[OGL LOG][Proc: 0]global_index_init : 8 mu s
[OGL LOG][Proc: 0]global_index_init : 1 mu s
[OGL LOG][Proc: 0]update_host_matrix_data : 3837 mu s
[OGL LOG][Proc: 0]gather_global_matrix : 0 mu s
[OGL LOG][Proc: 0]init_precond : 42 mu s
[OGL LOG][Proc: 0]generate_solver : 1 mu s
[OGL LOG][Proc: 0]solve : 261625 mu s
[OGL LOG][Proc: 0]copy_x_back : 362 mu s
nonecudaGKOCG:  Solving for p, Initial residual = 0.00596809, Final residual = 1.07024e-05, No Iterations 442
linear solve p 320794
time step continuity errors : sum local = 2.92567e-10, global = -8.83266e-22, cumulative = -1.57759e-20
[OGL LOG][Proc: 0]global_index_init : 8 mu s
[OGL LOG][Proc: 0]global_index_init : 2 mu s
[OGL LOG][Proc: 0]update_host_matrix_data : 3662 mu s
[OGL LOG][Proc: 0]gather_global_matrix : 0 mu s
[OGL LOG][Proc: 0]init_precond : 30 mu s
[OGL LOG][Proc: 0]generate_solver : 1 mu s
[OGL LOG][Proc: 0]solve : 214285 mu s
[OGL LOG][Proc: 0]copy_x_back : 335 mu s
nonecudaGKOCG:  Solving for p, Initial residual = 0.0048649, Final residual = 1.40296e-05, No Iterations 358
linear solve p 274588
time step continuity errors : sum local = 3.86433e-10, global = -5.11808e-22, cumulative = -1.62877e-20
ExecutionTime = 22.08 s  ClockTime = 23 s

Time = 0.0017

Courant Number mean: 0.00838248 max: 0.0916252
DILUPBiCGStab:  Solving for Ux, Initial residual = 0.00993245, Final residual = 3.70388e-08, No Iterations 5
DILUPBiCGStab:  Solving for Uy, Initial residual = 0.0135174, Final residual = 2.35924e-08, No Iterations 5
DILUPBiCGStab:  Solving for Uz, Initial residual = 0.0263596, Final residual = 5.88157e-08, No Iterations 5
linear solve U 125116
[OGL LOG][Proc: 0]global_index_init : 7 mu s
[OGL LOG][Proc: 0]global_index_init : 1 mu s
[OGL LOG][Proc: 0]update_host_matrix_data : 3762 mu s
[OGL LOG][Proc: 0]gather_global_matrix : 0 mu s
[OGL LOG][Proc: 0]init_precond : 30 mu s
[OGL LOG][Proc: 0]generate_solver : 1 mu s
[OGL LOG][Proc: 0]solve : 179475 mu s
[OGL LOG][Proc: 0]copy_x_back : 356 mu s
nonecudaGKOCG:  Solving for p, Initial residual = 0.0053596, Final residual = 3.24667e-05, No Iterations 295
linear solve p 239306
time step continuity errors : sum local = 8.1217e-10, global = -1.2052e-21, cumulative = -1.74929e-20
[OGL LOG][Proc: 0]global_index_init : 6 mu s
[OGL LOG][Proc: 0]global_index_init : 2 mu s
[OGL LOG][Proc: 0]update_host_matrix_data : 3646 mu s
[OGL LOG][Proc: 0]gather_global_matrix : 0 mu s
[OGL LOG][Proc: 0]init_precond : 41 mu s
[OGL LOG][Proc: 0]generate_solver : 1 mu s
[OGL LOG][Proc: 0]solve : 162510 mu s
[OGL LOG][Proc: 0]copy_x_back : 342 mu s
nonecudaGKOCG:  Solving for p, Initial residual = 0.00439693, Final residual = 7.73133e-05, No Iterations 265
linear solve p 222755
time step continuity errors : sum local = 1.94029e-09, global = -1.33446e-21, cumulative = -1.88274e-20
ExecutionTime = 22.77 s  ClockTime = 24 s

Time = 0.0018

Courant Number mean: 0.00857955 max: 0.0918497
DILUPBiCGStab:  Solving for Ux, Initial residual = 0.00931087, Final residual = 3.31053e-08, No Iterations 5
DILUPBiCGStab:  Solving for Uy, Initial residual = 0.0126548, Final residual = 2.2156e-08, No Iterations 5
DILUPBiCGStab:  Solving for Uz, Initial residual = 0.0247715, Final residual = 5.49168e-08, No Iterations 5
linear solve U 124487
[OGL LOG][Proc: 0]global_index_init : 7 mu s
[OGL LOG][Proc: 0]global_index_init : 1 mu s
[OGL LOG][Proc: 0]update_host_matrix_data : 3582 mu s
[OGL LOG][Proc: 0]gather_global_matrix : 0 mu s
[OGL LOG][Proc: 0]init_precond : 29 mu s
[OGL LOG][Proc: 0]generate_solver : 1 mu s
[OGL LOG][Proc: 0]solve : 167117 mu s
[OGL LOG][Proc: 0]copy_x_back : 346 mu s
nonecudaGKOCG:  Solving for p, Initial residual = 0.00502373, Final residual = 7.15843e-05, No Iterations 271
linear solve p 228409
time step continuity errors : sum local = 1.77606e-09, global = -5.4779e-22, cumulative = -1.93752e-20
[OGL LOG][Proc: 0]global_index_init : 6 mu s
[OGL LOG][Proc: 0]global_index_init : 2 mu s
[OGL LOG][Proc: 0]update_host_matrix_data : 3730 mu s
[OGL LOG][Proc: 0]gather_global_matrix : 0 mu s
[OGL LOG][Proc: 0]init_precond : 35 mu s
[OGL LOG][Proc: 0]generate_solver : 1 mu s
[OGL LOG][Proc: 0]solve : 160131 mu s
[OGL LOG][Proc: 0]copy_x_back : 354 mu s
nonecudaGKOCG:  Solving for p, Initial residual = 0.00413325, Final residual = 8.76799e-05, No Iterations 261
linear solve p 221251
time step continuity errors : sum local = 2.19275e-09, global = -8.80068e-22, cumulative = -2.02552e-20
ExecutionTime = 23.42 s  ClockTime = 25 s

Time = 0.0019

Courant Number mean: 0.00876812 max: 0.092054
DILUPBiCGStab:  Solving for Ux, Initial residual = 0.00875811, Final residual = 2.97911e-08, No Iterations 5
DILUPBiCGStab:  Solving for Uy, Initial residual = 0.0118905, Final residual = 2.08596e-08, No Iterations 5
DILUPBiCGStab:  Solving for Uz, Initial residual = 0.0233611, Final residual = 5.15392e-08, No Iterations 5
linear solve U 127044
[OGL LOG][Proc: 0]global_index_init : 16 mu s
[OGL LOG][Proc: 0]global_index_init : 1 mu s
[OGL LOG][Proc: 0]update_host_matrix_data : 3605 mu s
[OGL LOG][Proc: 0]gather_global_matrix : 0 mu s
[OGL LOG][Proc: 0]init_precond : 29 mu s
[OGL LOG][Proc: 0]generate_solver : 1 mu s
[OGL LOG][Proc: 0]solve : 165666 mu s
[OGL LOG][Proc: 0]copy_x_back : 353 mu s
nonecudaGKOCG:  Solving for p, Initial residual = 0.00468593, Final residual = 6.94917e-05, No Iterations 271
linear solve p 224887
time step continuity errors : sum local = 1.72084e-09, global = -8.99918e-22, cumulative = -2.11552e-20
[OGL LOG][Proc: 0]global_index_init : 8 mu s
[OGL LOG][Proc: 0]global_index_init : 1 mu s
[OGL LOG][Proc: 0]update_host_matrix_data : 3675 mu s
[OGL LOG][Proc: 0]gather_global_matrix : 0 mu s
[OGL LOG][Proc: 0]init_precond : 31 mu s
[OGL LOG][Proc: 0]generate_solver : 1 mu s
[OGL LOG][Proc: 0]solve : 162361 mu s
[OGL LOG][Proc: 0]copy_x_back : 729 mu s
nonecudaGKOCG:  Solving for p, Initial residual = 0.00385833, Final residual = 8.14898e-05, No Iterations 261
linear solve p 223101
time step continuity errors : sum local = 2.03563e-09, global = -9.16687e-22, cumulative = -2.20718e-20
ExecutionTime = 24.09 s  ClockTime = 25 s

Time = 0.002

Courant Number mean: 0.00894848 max: 0.0922409
DILUPBiCGStab:  Solving for Ux, Initial residual = 0.00826093, Final residual = 2.6973e-08, No Iterations 5
DILUPBiCGStab:  Solving for Uy, Initial residual = 0.0112089, Final residual = 1.96851e-08, No Iterations 5
DILUPBiCGStab:  Solving for Uz, Initial residual = 0.0220949, Final residual = 4.84741e-08, No Iterations 5
linear solve U 124945
[OGL LOG][Proc: 0]global_index_init : 6 mu s
[OGL LOG][Proc: 0]global_index_init : 1 mu s
[OGL LOG][Proc: 0]update_host_matrix_data : 3631 mu s
[OGL LOG][Proc: 0]gather_global_matrix : 0 mu s
[OGL LOG][Proc: 0]init_precond : 29 mu s
[OGL LOG][Proc: 0]generate_solver : 1 mu s
[OGL LOG][Proc: 0]solve : 161508 mu s
[OGL LOG][Proc: 0]copy_x_back : 358 mu s
nonecudaGKOCG:  Solving for p, Initial residual = 0.00432732, Final residual = 9.3893e-05, No Iterations 261
linear solve p 220913
time step continuity errors : sum local = 2.32982e-09, global = -2.45177e-21, cumulative = -2.45236e-20
[OGL LOG][Proc: 0]global_index_init : 5 mu s
[OGL LOG][Proc: 0]global_index_init : 1 mu s
[OGL LOG][Proc: 0]update_host_matrix_data : 3699 mu s
[OGL LOG][Proc: 0]gather_global_matrix : 0 mu s
[OGL LOG][Proc: 0]init_precond : 28 mu s
[OGL LOG][Proc: 0]generate_solver : 1 mu s
[OGL LOG][Proc: 0]solve : 160147 mu s
[OGL LOG][Proc: 0]copy_x_back : 345 mu s
nonecudaGKOCG:  Solving for p, Initial residual = 0.00359873, Final residual = 6.89604e-05, No Iterations 261
linear solve p 220702
time step continuity errors : sum local = 1.72149e-09, global = -1.27961e-21, cumulative = -2.58032e-20
ExecutionTime = 24.75 s  ClockTime = 26 s

End

Finalising parallel run
================================================================================
