hash: e8d627a3b446102fef71ad4d29d2d319
/*---------------------------------------------------------------------------*\
| =========                 |                                                 |
| \\      /  F ield         | OpenFOAM: The Open Source CFD Toolbox           |
|  \\    /   O peration     | Version:  2112                                  |
|   \\  /    A nd           | Website:  www.openfoam.com                      |
|    \\/     M anipulation  |                                                 |
\*---------------------------------------------------------------------------*/
Build  : f8dc192941-20220507 OPENFOAM=2112 patch=220310 version=v2112
Arch   : "LSB;label=32;scalar=64"
Exec   : /global/homes/g/greole/OpenFOAM/openfoam/platforms/linux64GccDPInt32Opt/bin/icoFoam -parallel
Date   : Jun 23 2022
Time   : 04:57:37
Host   : nid002820
PID    : 75653
I/O    : uncollated
Case   : /pscratch/sd/g/greole/lidDrivenCavity/simple/Variation_mesh/200/Variation_matrix_solver/CG_NoPrecond_CUDA/Variation_mpiRank_gko/16/base
nProcs : 16
Hosts  :
(
    (nid002820 4)
    (nid002821 4)
    (nid002824 4)
    (nid003753 4)
)
Pstream initialized with:
    floatTransfer      : 0
    nProcsSimpleSum    : 0
    commsType          : nonBlocking
    polling iterations : 0
trapFpe: Floating point exception trapping enabled (FOAM_SIGFPE).
fileModificationChecking : Monitoring run-time modified files using timeStampMaster (fileModificationSkew 5, maxFileModificationPolls 20)
allowSystemOperations : Allowing user-supplied system call operations

// * * * * * * * * * * * * * * * * * * * * * * * * * * * * * * * * * * * * * //
Create time

Create mesh for time = 0


PISO: Operating solver in PISO mode

Reading transportProperties

Reading field p

Reading field U

Reading/calculating face flux field phi


Starting time loop

Time = 5e-05

Courant Number mean: 0 max: 0
DILUPBiCGStab:  Solving for Ux, Initial residual = 1, Final residual = 0.000121814, No Iterations 5
DILUPBiCGStab:  Solving for Uy:  solution singularity
DILUPBiCGStab:  Solving for Uz:  solution singularity
linear solve U 372263
[OGL LOG][Proc: 0]global_index_init: 56.526 [ms]
[OGL LOG][Proc: 0]global_index_init: 0.021 [ms]
[OGL LOG][Proc: 0]init_host_sparsity_pattern: 6103.55 [ms]
[OGL LOG][Proc: 0]update_host_matrix_data: 11.552 [ms]
[OGL LOG][Proc: 0]convert_coo_to_csr: 271.723 [ms]
[OGL LOG][lduLduBase.H:153] Initialising OGL
	Version:  484b851+
	branch: HEAD 
	Ginkgo version: 1.5.0(develop)
	MPI is GPU aware: 1)
	Forces host buffer based communication: 1
[OGL LOG][Proc: 0]gather_global_matrix: 0.002 [ms]
[OGL LOG][Proc: 0]generate_distributed_matrix: 16.435 [ms]
[OGL LOG][Proc: 0]init_precond: 0.408 [ms]
[OGL LOG][Proc: 0]generate_solver: 0.012 [ms]
[OGL LOG][Proc: 0]solve: 1070.41 [ms]
[OGL LOG][Proc: 0]copy_x_back: 1.533 [ms]
[OGL LOG][lduLduBase.H:380] 
Statistics:
	Time per iteration: 662 [mu s]
	Time per iteration and DOF: 0.082750 [ns]
	Retrieve results bandwith 2.609000 [GByte/s]
nonecudaGKOCG:  Solving for p, Initial residual = 1, Final residual = 9.94851e-05, No Iterations 1615
linear solve p 13417618
time step continuity errors : sum local = 6.58727e-10, global = 1.93214e-22, cumulative = 1.93214e-22
[OGL LOG][Proc: 0]global_index_init: 0.02 [ms]
[OGL LOG][Proc: 0]global_index_init: 0.013 [ms]
[OGL LOG][Proc: 0]update_host_matrix_data: 18.012 [ms]
[OGL LOG][Proc: 0]gather_global_matrix: 0 [ms]
[OGL LOG][Proc: 0]generate_distributed_matrix: 14.778 [ms]
[OGL LOG][Proc: 0]init_precond: 0.036 [ms]
[OGL LOG][Proc: 0]generate_solver: 0.002 [ms]
[OGL LOG][Proc: 0]solve: 881.836 [ms]
[OGL LOG][Proc: 0]copy_x_back: 1.908 [ms]
[OGL LOG][lduLduBase.H:380] 
Statistics:
	Time per iteration: 550 [mu s]
	Time per iteration and DOF: 0.068750 [ns]
	Retrieve results bandwith 2.096000 [GByte/s]
nonecudaGKOCG:  Solving for p, Initial residual = 0.645093, Final residual = 7.59653e-05, No Iterations 1601
linear solve p 924430
time step continuity errors : sum local = 7.26342e-10, global = -4.04007e-23, cumulative = 1.52814e-22
ExecutionTime = 20.97 s  ClockTime = 22 s

Time = 0.0001

Courant Number mean: 0.00156134 max: 0.0657803
DILUPBiCGStab:  Solving for Ux, Initial residual = 0.189842, Final residual = 6.99457e-05, No Iterations 5
DILUPBiCGStab:  Solving for Uy, Initial residual = 0.330054, Final residual = 6.06762e-05, No Iterations 5
DILUPBiCGStab:  Solving for Uz, Initial residual = 0.992782, Final residual = 0.000181868, No Iterations 5
linear solve U 756872
[OGL LOG][Proc: 0]global_index_init: 0.019 [ms]
[OGL LOG][Proc: 0]global_index_init: 0.018 [ms]
[OGL LOG][Proc: 0]update_host_matrix_data: 18.189 [ms]
[OGL LOG][Proc: 0]gather_global_matrix: 0 [ms]
[OGL LOG][Proc: 0]generate_distributed_matrix: 19.7 [ms]
[OGL LOG][Proc: 0]init_precond: 0.022 [ms]
[OGL LOG][Proc: 0]generate_solver: 0.001 [ms]
[OGL LOG][Proc: 0]solve: 925.081 [ms]
[OGL LOG][Proc: 0]copy_x_back: 1.846 [ms]
[OGL LOG][lduLduBase.H:380] 
Statistics:
	Time per iteration: 577 [mu s]
	Time per iteration and DOF: 0.072125 [ns]
	Retrieve results bandwith 2.166000 [GByte/s]
nonecudaGKOCG:  Solving for p, Initial residual = 0.510126, Final residual = 3.45713e-05, No Iterations 1601
linear solve p 972305
time step continuity errors : sum local = 3.22117e-10, global = -3.73705e-23, cumulative = 1.15443e-22
[OGL LOG][Proc: 0]global_index_init: 0.032 [ms]
[OGL LOG][Proc: 0]global_index_init: 0.012 [ms]
[OGL LOG][Proc: 0]update_host_matrix_data: 18.503 [ms]
[OGL LOG][Proc: 0]gather_global_matrix: 0 [ms]
[OGL LOG][Proc: 0]generate_distributed_matrix: 15.581 [ms]
[OGL LOG][Proc: 0]init_precond: 0.021 [ms]
[OGL LOG][Proc: 0]generate_solver: 0.002 [ms]
[OGL LOG][Proc: 0]solve: 911.818 [ms]
[OGL LOG][Proc: 0]copy_x_back: 1.851 [ms]
[OGL LOG][lduLduBase.H:380] 
Statistics:
	Time per iteration: 569 [mu s]
	Time per iteration and DOF: 0.071125 [ns]
	Retrieve results bandwith 2.160000 [GByte/s]
nonecudaGKOCG:  Solving for p, Initial residual = 0.420834, Final residual = 3.27303e-05, No Iterations 1601
linear solve p 955877
time step continuity errors : sum local = 3.14397e-10, global = 2.76041e-22, cumulative = 3.91484e-22
ExecutionTime = 24.19 s  ClockTime = 26 s

Time = 0.00015

Courant Number mean: 0.00241156 max: 0.0810517
DILUPBiCGStab:  Solving for Ux, Initial residual = 0.0803509, Final residual = 2.37701e-05, No Iterations 5
DILUPBiCGStab:  Solving for Uy, Initial residual = 0.137295, Final residual = 1.41696e-05, No Iterations 5
DILUPBiCGStab:  Solving for Uz, Initial residual = 0.0904029, Final residual = 3.23381e-05, No Iterations 5
linear solve U 759267
[OGL LOG][Proc: 0]global_index_init: 0.031 [ms]
[OGL LOG][Proc: 0]global_index_init: 0.014 [ms]
[OGL LOG][Proc: 0]update_host_matrix_data: 18.284 [ms]
[OGL LOG][Proc: 0]gather_global_matrix: 0 [ms]
[OGL LOG][Proc: 0]generate_distributed_matrix: 15.468 [ms]
[OGL LOG][Proc: 0]init_precond: 0.022 [ms]
[OGL LOG][Proc: 0]generate_solver: 0.001 [ms]
[OGL LOG][Proc: 0]solve: 880.527 [ms]
[OGL LOG][Proc: 0]copy_x_back: 1.942 [ms]
[OGL LOG][lduLduBase.H:380] 
Statistics:
	Time per iteration: 572 [mu s]
	Time per iteration and DOF: 0.071500 [ns]
	Retrieve results bandwith 2.059000 [GByte/s]
nonecudaGKOCG:  Solving for p, Initial residual = 0.2528, Final residual = 8.50544e-05, No Iterations 1537
linear solve p 923898
time step continuity errors : sum local = 6.11937e-10, global = 3.16091e-22, cumulative = 7.07575e-22
[OGL LOG][Proc: 0]global_index_init: 0.038 [ms]
[OGL LOG][Proc: 0]global_index_init: 0.019 [ms]
[OGL LOG][Proc: 0]update_host_matrix_data: 18.288 [ms]
[OGL LOG][Proc: 0]gather_global_matrix: 0 [ms]
[OGL LOG][Proc: 0]generate_distributed_matrix: 15.622 [ms]
[OGL LOG][Proc: 0]init_precond: 0.021 [ms]
[OGL LOG][Proc: 0]generate_solver: 0.001 [ms]
[OGL LOG][Proc: 0]solve: 875.02 [ms]
[OGL LOG][Proc: 0]copy_x_back: 1.905 [ms]
[OGL LOG][lduLduBase.H:380] 
Statistics:
	Time per iteration: 573 [mu s]
	Time per iteration and DOF: 0.071625 [ns]
	Retrieve results bandwith 2.099000 [GByte/s]
nonecudaGKOCG:  Solving for p, Initial residual = 0.20918, Final residual = 9.9134e-05, No Iterations 1526
linear solve p 918759
time step continuity errors : sum local = 7.0543e-10, global = -1.44797e-23, cumulative = 6.93095e-22
ExecutionTime = 27.34 s  ClockTime = 29 s

Time = 0.0002

Courant Number mean: 0.00299651 max: 0.0859678
DILUPBiCGStab:  Solving for Ux, Initial residual = 0.0511433, Final residual = 1.13044e-05, No Iterations 5
DILUPBiCGStab:  Solving for Uy, Initial residual = 0.0858859, Final residual = 9.33116e-06, No Iterations 5
DILUPBiCGStab:  Solving for Uz, Initial residual = 0.111614, Final residual = 2.09657e-05, No Iterations 5
linear solve U 757648
[OGL LOG][Proc: 0]global_index_init: 0.036 [ms]
[OGL LOG][Proc: 0]global_index_init: 0.012 [ms]
[OGL LOG][Proc: 0]update_host_matrix_data: 19.055 [ms]
[OGL LOG][Proc: 0]gather_global_matrix: 0 [ms]
[OGL LOG][Proc: 0]generate_distributed_matrix: 18.543 [ms]
[OGL LOG][Proc: 0]init_precond: 0.032 [ms]
[OGL LOG][Proc: 0]generate_solver: 0.002 [ms]
[OGL LOG][Proc: 0]solve: 875.778 [ms]
[OGL LOG][Proc: 0]copy_x_back: 1.781 [ms]
[OGL LOG][lduLduBase.H:380] 
Statistics:
	Time per iteration: 573 [mu s]
	Time per iteration and DOF: 0.071625 [ns]
	Retrieve results bandwith 2.245000 [GByte/s]
nonecudaGKOCG:  Solving for p, Initial residual = 0.122976, Final residual = 6.25886e-05, No Iterations 1526
linear solve p 923059
time step continuity errors : sum local = 4.23302e-10, global = 4.7096e-23, cumulative = 7.40191e-22
[OGL LOG][Proc: 0]global_index_init: 0.022 [ms]
[OGL LOG][Proc: 0]global_index_init: 0.014 [ms]
[OGL LOG][Proc: 0]update_host_matrix_data: 18.219 [ms]
[OGL LOG][Proc: 0]gather_global_matrix: 0 [ms]
[OGL LOG][Proc: 0]generate_distributed_matrix: 15.796 [ms]
[OGL LOG][Proc: 0]init_precond: 0.021 [ms]
[OGL LOG][Proc: 0]generate_solver: 0.002 [ms]
[OGL LOG][Proc: 0]solve: 872.939 [ms]
[OGL LOG][Proc: 0]copy_x_back: 1.908 [ms]
[OGL LOG][lduLduBase.H:380] 
Statistics:
	Time per iteration: 572 [mu s]
	Time per iteration and DOF: 0.071500 [ns]
	Retrieve results bandwith 2.096000 [GByte/s]
nonecudaGKOCG:  Solving for p, Initial residual = 0.0996879, Final residual = 5.21762e-05, No Iterations 1526
linear solve p 917444
time step continuity errors : sum local = 3.56819e-10, global = -6.34122e-23, cumulative = 6.76779e-22
ExecutionTime = 30.48 s  ClockTime = 32 s

Time = 0.00025

Courant Number mean: 0.00346135 max: 0.0883161
DILUPBiCGStab:  Solving for Ux, Initial residual = 0.0380472, Final residual = 5.69362e-06, No Iterations 5
DILUPBiCGStab:  Solving for Uy, Initial residual = 0.0619938, Final residual = 6.88846e-06, No Iterations 5
DILUPBiCGStab:  Solving for Uz, Initial residual = 0.0917038, Final residual = 1.11186e-05, No Iterations 5
linear solve U 757160
[OGL LOG][Proc: 0]global_index_init: 0.027 [ms]
[OGL LOG][Proc: 0]global_index_init: 0.012 [ms]
[OGL LOG][Proc: 0]update_host_matrix_data: 18.26 [ms]
[OGL LOG][Proc: 0]gather_global_matrix: 0 [ms]
[OGL LOG][Proc: 0]generate_distributed_matrix: 15.185 [ms]
[OGL LOG][Proc: 0]init_precond: 0.03 [ms]
[OGL LOG][Proc: 0]generate_solver: 0.002 [ms]
[OGL LOG][Proc: 0]solve: 875.727 [ms]
[OGL LOG][Proc: 0]copy_x_back: 1.813 [ms]
[OGL LOG][lduLduBase.H:380] 
Statistics:
	Time per iteration: 573 [mu s]
	Time per iteration and DOF: 0.071625 [ns]
	Retrieve results bandwith 2.206000 [GByte/s]
nonecudaGKOCG:  Solving for p, Initial residual = 0.0623187, Final residual = 4.26252e-05, No Iterations 1526
linear solve p 919686
time step continuity errors : sum local = 2.81367e-10, global = -5.05762e-23, cumulative = 6.26203e-22
[OGL LOG][Proc: 0]global_index_init: 0.029 [ms]
[OGL LOG][Proc: 0]global_index_init: 0.013 [ms]
[OGL LOG][Proc: 0]update_host_matrix_data: 18.115 [ms]
[OGL LOG][Proc: 0]gather_global_matrix: 0 [ms]
[OGL LOG][Proc: 0]generate_distributed_matrix: 18.484 [ms]
[OGL LOG][Proc: 0]init_precond: 0.031 [ms]
[OGL LOG][Proc: 0]generate_solver: 0.002 [ms]
[OGL LOG][Proc: 0]solve: 879.4 [ms]
[OGL LOG][Proc: 0]copy_x_back: 1.663 [ms]
[OGL LOG][lduLduBase.H:380] 
Statistics:
	Time per iteration: 576 [mu s]
	Time per iteration and DOF: 0.072000 [ns]
	Retrieve results bandwith 2.405000 [GByte/s]
nonecudaGKOCG:  Solving for p, Initial residual = 0.052451, Final residual = 3.52404e-05, No Iterations 1526
linear solve p 925693
time step continuity errors : sum local = 2.32967e-10, global = 5.17343e-24, cumulative = 6.31377e-22
ExecutionTime = 33.64 s  ClockTime = 35 s

Time = 0.0003

Courant Number mean: 0.00385423 max: 0.0897419
DILUPBiCGStab:  Solving for Ux, Initial residual = 0.0304965, Final residual = 4.09437e-06, No Iterations 5
DILUPBiCGStab:  Solving for Uy, Initial residual = 0.0485952, Final residual = 4.79189e-06, No Iterations 5
DILUPBiCGStab:  Solving for Uz, Initial residual = 0.0769007, Final residual = 7.38443e-06, No Iterations 5
linear solve U 759196
[OGL LOG][Proc: 0]global_index_init: 0.028 [ms]
[OGL LOG][Proc: 0]global_index_init: 0.014 [ms]
[OGL LOG][Proc: 0]update_host_matrix_data: 17.996 [ms]
[OGL LOG][Proc: 0]gather_global_matrix: 0 [ms]
[OGL LOG][Proc: 0]generate_distributed_matrix: 15.897 [ms]
[OGL LOG][Proc: 0]init_precond: 0.023 [ms]
[OGL LOG][Proc: 0]generate_solver: 0.001 [ms]
[OGL LOG][Proc: 0]solve: 853.179 [ms]
[OGL LOG][Proc: 0]copy_x_back: 1.763 [ms]
[OGL LOG][lduLduBase.H:380] 
Statistics:
	Time per iteration: 582 [mu s]
	Time per iteration and DOF: 0.072750 [ns]
	Retrieve results bandwith 2.268000 [GByte/s]
nonecudaGKOCG:  Solving for p, Initial residual = 0.0394992, Final residual = 8.89508e-05, No Iterations 1465
linear solve p 896735
time step continuity errors : sum local = 5.81964e-10, global = -7.52292e-23, cumulative = 5.56147e-22
[OGL LOG][Proc: 0]global_index_init: 0.031 [ms]
[OGL LOG][Proc: 0]global_index_init: 0.013 [ms]
[OGL LOG][Proc: 0]update_host_matrix_data: 18.237 [ms]
[OGL LOG][Proc: 0]gather_global_matrix: 0 [ms]
[OGL LOG][Proc: 0]generate_distributed_matrix: 15.726 [ms]
[OGL LOG][Proc: 0]init_precond: 0.021 [ms]
[OGL LOG][Proc: 0]generate_solver: 0.001 [ms]
[OGL LOG][Proc: 0]solve: 851.038 [ms]
[OGL LOG][Proc: 0]copy_x_back: 1.806 [ms]
[OGL LOG][lduLduBase.H:380] 
Statistics:
	Time per iteration: 586 [mu s]
	Time per iteration and DOF: 0.073250 [ns]
	Retrieve results bandwith 2.214000 [GByte/s]
nonecudaGKOCG:  Solving for p, Initial residual = 0.033447, Final residual = 9.806e-05, No Iterations 1451
linear solve p 894815
time step continuity errors : sum local = 6.44329e-10, global = 1.31685e-22, cumulative = 6.87832e-22
ExecutionTime = 36.73 s  ClockTime = 38 s

Time = 0.00035

Courant Number mean: 0.00419839 max: 0.0907273
DILUPBiCGStab:  Solving for Ux, Initial residual = 0.0255234, Final residual = 3.46828e-06, No Iterations 5
DILUPBiCGStab:  Solving for Uy, Initial residual = 0.0399285, Final residual = 3.70121e-06, No Iterations 5
DILUPBiCGStab:  Solving for Uz, Initial residual = 0.0659273, Final residual = 4.87834e-06, No Iterations 5
linear solve U 761007
[OGL LOG][Proc: 0]global_index_init: 0.031 [ms]
[OGL LOG][Proc: 0]global_index_init: 0.012 [ms]
[OGL LOG][Proc: 0]update_host_matrix_data: 18.355 [ms]
[OGL LOG][Proc: 0]gather_global_matrix: 0 [ms]
[OGL LOG][Proc: 0]generate_distributed_matrix: 15.654 [ms]
[OGL LOG][Proc: 0]init_precond: 0.022 [ms]
[OGL LOG][Proc: 0]generate_solver: 0.001 [ms]
[OGL LOG][Proc: 0]solve: 839.398 [ms]
[OGL LOG][Proc: 0]copy_x_back: 1.769 [ms]
[OGL LOG][lduLduBase.H:380] 
Statistics:
	Time per iteration: 578 [mu s]
	Time per iteration and DOF: 0.072250 [ns]
	Retrieve results bandwith 2.261000 [GByte/s]
nonecudaGKOCG:  Solving for p, Initial residual = 0.0290861, Final residual = 8.27962e-05, No Iterations 1451
linear solve p 883039
time step continuity errors : sum local = 5.43409e-10, global = -8.50999e-23, cumulative = 6.02733e-22
[OGL LOG][Proc: 0]global_index_init: 0.046 [ms]
[OGL LOG][Proc: 0]global_index_init: 0.015 [ms]
[OGL LOG][Proc: 0]update_host_matrix_data: 18.057 [ms]
[OGL LOG][Proc: 0]gather_global_matrix: 0 [ms]
[OGL LOG][Proc: 0]generate_distributed_matrix: 15.294 [ms]
[OGL LOG][Proc: 0]init_precond: 0.03 [ms]
[OGL LOG][Proc: 0]generate_solver: 0.002 [ms]
[OGL LOG][Proc: 0]solve: 831.668 [ms]
[OGL LOG][Proc: 0]copy_x_back: 1.981 [ms]
[OGL LOG][lduLduBase.H:380] 
Statistics:
	Time per iteration: 573 [mu s]
	Time per iteration and DOF: 0.071625 [ns]
	Retrieve results bandwith 2.019000 [GByte/s]
nonecudaGKOCG:  Solving for p, Initial residual = 0.0252807, Final residual = 6.81467e-05, No Iterations 1451
linear solve p 875154
time step continuity errors : sum local = 4.48095e-10, global = 1.80566e-22, cumulative = 7.83299e-22
ExecutionTime = 39.79 s  ClockTime = 41 s

Time = 0.0004

Courant Number mean: 0.00450618 max: 0.0914618
DILUPBiCGStab:  Solving for Ux, Initial residual = 0.0219754, Final residual = 2.93376e-06, No Iterations 5
DILUPBiCGStab:  Solving for Uy, Initial residual = 0.033875, Final residual = 2.81248e-06, No Iterations 5
DILUPBiCGStab:  Solving for Uz, Initial residual = 0.0579394, Final residual = 3.66342e-06, No Iterations 5
linear solve U 755212
[OGL LOG][Proc: 0]global_index_init: 0.026 [ms]
[OGL LOG][Proc: 0]global_index_init: 0.016 [ms]
[OGL LOG][Proc: 0]update_host_matrix_data: 18.623 [ms]
[OGL LOG][Proc: 0]gather_global_matrix: 0 [ms]
[OGL LOG][Proc: 0]generate_distributed_matrix: 15.273 [ms]
[OGL LOG][Proc: 0]init_precond: 0.022 [ms]
[OGL LOG][Proc: 0]generate_solver: 0.001 [ms]
[OGL LOG][Proc: 0]solve: 836.557 [ms]
[OGL LOG][Proc: 0]copy_x_back: 1.879 [ms]
[OGL LOG][lduLduBase.H:380] 
Statistics:
	Time per iteration: 576 [mu s]
	Time per iteration and DOF: 0.072000 [ns]
	Retrieve results bandwith 2.128000 [GByte/s]
nonecudaGKOCG:  Solving for p, Initial residual = 0.0216593, Final residual = 7.76281e-05, No Iterations 1451
linear solve p 880030
time step continuity errors : sum local = 5.10411e-10, global = -1.00842e-22, cumulative = 6.82457e-22
[OGL LOG][Proc: 0]global_index_init: 0.026 [ms]
[OGL LOG][Proc: 0]global_index_init: 0.013 [ms]
[OGL LOG][Proc: 0]update_host_matrix_data: 18.092 [ms]
[OGL LOG][Proc: 0]gather_global_matrix: 0 [ms]
[OGL LOG][Proc: 0]generate_distributed_matrix: 15.556 [ms]
[OGL LOG][Proc: 0]init_precond: 0.024 [ms]
[OGL LOG][Proc: 0]generate_solver: 0.001 [ms]
[OGL LOG][Proc: 0]solve: 837.25 [ms]
[OGL LOG][Proc: 0]copy_x_back: 1.816 [ms]
[OGL LOG][lduLduBase.H:380] 
Statistics:
	Time per iteration: 577 [mu s]
	Time per iteration and DOF: 0.072125 [ns]
	Retrieve results bandwith 2.202000 [GByte/s]
nonecudaGKOCG:  Solving for p, Initial residual = 0.0191745, Final residual = 6.07872e-05, No Iterations 1451
linear solve p 880923
time step continuity errors : sum local = 4.00513e-10, global = -3.43146e-22, cumulative = 3.39311e-22
ExecutionTime = 42.86 s  ClockTime = 44 s

Time = 0.00045

Courant Number mean: 0.00478562 max: 0.0920366
DILUPBiCGStab:  Solving for Ux, Initial residual = 0.0193081, Final residual = 2.48464e-06, No Iterations 5
DILUPBiCGStab:  Solving for Uy, Initial residual = 0.0293948, Final residual = 2.28446e-06, No Iterations 5
DILUPBiCGStab:  Solving for Uz, Initial residual = 0.0513769, Final residual = 2.82506e-06, No Iterations 5
linear solve U 755904
[OGL LOG][Proc: 0]global_index_init: 0.02 [ms]
[OGL LOG][Proc: 0]global_index_init: 0.012 [ms]
[OGL LOG][Proc: 0]update_host_matrix_data: 18.324 [ms]
[OGL LOG][Proc: 0]gather_global_matrix: 0 [ms]
[OGL LOG][Proc: 0]generate_distributed_matrix: 18.059 [ms]
[OGL LOG][Proc: 0]init_precond: 0.032 [ms]
[OGL LOG][Proc: 0]generate_solver: 0.003 [ms]
[OGL LOG][Proc: 0]solve: 833.157 [ms]
[OGL LOG][Proc: 0]copy_x_back: 1.766 [ms]
[OGL LOG][lduLduBase.H:380] 
Statistics:
	Time per iteration: 574 [mu s]
	Time per iteration and DOF: 0.071750 [ns]
	Retrieve results bandwith 2.265000 [GByte/s]
nonecudaGKOCG:  Solving for p, Initial residual = 0.0179974, Final residual = 6.24259e-05, No Iterations 1451
linear solve p 879045
time step continuity errors : sum local = 4.11478e-10, global = -4.29867e-22, cumulative = -9.05562e-23
[OGL LOG][Proc: 0]global_index_init: 0.025 [ms]
[OGL LOG][Proc: 0]global_index_init: 0.013 [ms]
[OGL LOG][Proc: 0]update_host_matrix_data: 18.202 [ms]
[OGL LOG][Proc: 0]gather_global_matrix: 0 [ms]
[OGL LOG][Proc: 0]generate_distributed_matrix: 15.009 [ms]
[OGL LOG][Proc: 0]init_precond: 0.023 [ms]
[OGL LOG][Proc: 0]generate_solver: 0.001 [ms]
[OGL LOG][Proc: 0]solve: 831.933 [ms]
[OGL LOG][Proc: 0]copy_x_back: 1.863 [ms]
[OGL LOG][lduLduBase.H:380] 
Statistics:
	Time per iteration: 573 [mu s]
	Time per iteration and DOF: 0.071625 [ns]
	Retrieve results bandwith 2.147000 [GByte/s]
nonecudaGKOCG:  Solving for p, Initial residual = 0.0160421, Final residual = 4.77808e-05, No Iterations 1451
linear solve p 876873
time step continuity errors : sum local = 3.15392e-10, global = -1.38612e-22, cumulative = -2.29168e-22
ExecutionTime = 45.92 s  ClockTime = 48 s

Time = 0.0005

Courant Number mean: 0.00504285 max: 0.0925024
DILUPBiCGStab:  Solving for Ux, Initial residual = 0.017224, Final residual = 2.12273e-06, No Iterations 5
DILUPBiCGStab:  Solving for Uy, Initial residual = 0.0259484, Final residual = 1.88005e-06, No Iterations 5
DILUPBiCGStab:  Solving for Uz, Initial residual = 0.046251, Final residual = 2.30042e-06, No Iterations 5
linear solve U 755532
[OGL LOG][Proc: 0]global_index_init: 0.021 [ms]
[OGL LOG][Proc: 0]global_index_init: 0.016 [ms]
[OGL LOG][Proc: 0]update_host_matrix_data: 18.58 [ms]
[OGL LOG][Proc: 0]gather_global_matrix: 0 [ms]
[OGL LOG][Proc: 0]generate_distributed_matrix: 18.203 [ms]
[OGL LOG][Proc: 0]init_precond: 0.03 [ms]
[OGL LOG][Proc: 0]generate_solver: 0.002 [ms]
[OGL LOG][Proc: 0]solve: 842.83 [ms]
[OGL LOG][Proc: 0]copy_x_back: 1.864 [ms]
[OGL LOG][lduLduBase.H:380] 
Statistics:
	Time per iteration: 580 [mu s]
	Time per iteration and DOF: 0.072500 [ns]
	Retrieve results bandwith 2.145000 [GByte/s]
nonecudaGKOCG:  Solving for p, Initial residual = 0.0150439, Final residual = 5.50532e-05, No Iterations 1451
linear solve p 889539
time step continuity errors : sum local = 3.63607e-10, global = -1.8978e-22, cumulative = -4.18948e-22
[OGL LOG][Proc: 0]global_index_init: 0.037 [ms]
[OGL LOG][Proc: 0]global_index_init: 0.013 [ms]
[OGL LOG][Proc: 0]update_host_matrix_data: 18.181 [ms]
[OGL LOG][Proc: 0]gather_global_matrix: 0 [ms]
[OGL LOG][Proc: 0]generate_distributed_matrix: 15.569 [ms]
[OGL LOG][Proc: 0]init_precond: 0.031 [ms]
[OGL LOG][Proc: 0]generate_solver: 0.002 [ms]
[OGL LOG][Proc: 0]solve: 806.463 [ms]
[OGL LOG][Proc: 0]copy_x_back: 1.724 [ms]
[OGL LOG][lduLduBase.H:380] 
Statistics:
	Time per iteration: 578 [mu s]
	Time per iteration and DOF: 0.072250 [ns]
	Retrieve results bandwith 2.320000 [GByte/s]
nonecudaGKOCG:  Solving for p, Initial residual = 0.0134909, Final residual = 9.6538e-05, No Iterations 1393
linear solve p 850314
time step continuity errors : sum local = 6.38481e-10, global = -3.1513e-22, cumulative = -7.34077e-22
ExecutionTime = 48.95 s  ClockTime = 51 s

Time = 0.00055

Courant Number mean: 0.00528107 max: 0.0928898
DILUPBiCGStab:  Solving for Ux, Initial residual = 0.0155468, Final residual = 1.83339e-06, No Iterations 5
DILUPBiCGStab:  Solving for Uy, Initial residual = 0.0232131, Final residual = 1.59225e-06, No Iterations 5
DILUPBiCGStab:  Solving for Uz, Initial residual = 0.0418814, Final residual = 1.93143e-06, No Iterations 5
linear solve U 752678
[OGL LOG][Proc: 0]global_index_init: 0.041 [ms]
[OGL LOG][Proc: 0]global_index_init: 0.014 [ms]
[OGL LOG][Proc: 0]update_host_matrix_data: 18.297 [ms]
[OGL LOG][Proc: 0]gather_global_matrix: 0 [ms]
[OGL LOG][Proc: 0]generate_distributed_matrix: 17.3 [ms]
[OGL LOG][Proc: 0]init_precond: 0.021 [ms]
[OGL LOG][Proc: 0]generate_solver: 0.001 [ms]
[OGL LOG][Proc: 0]solve: 823.207 [ms]
[OGL LOG][Proc: 0]copy_x_back: 1.912 [ms]
[OGL LOG][lduLduBase.H:380] 
Statistics:
	Time per iteration: 575 [mu s]
	Time per iteration and DOF: 0.071875 [ns]
	Retrieve results bandwith 2.092000 [GByte/s]
nonecudaGKOCG:  Solving for p, Initial residual = 0.013116, Final residual = 6.20432e-05, No Iterations 1431
linear solve p 869286
time step continuity errors : sum local = 4.10575e-10, global = 6.5367e-23, cumulative = -6.6871e-22
[OGL LOG][Proc: 0]global_index_init: 0.025 [ms]
[OGL LOG][Proc: 0]global_index_init: 0.011 [ms]
[OGL LOG][Proc: 0]update_host_matrix_data: 18.267 [ms]
[OGL LOG][Proc: 0]gather_global_matrix: 0 [ms]
[OGL LOG][Proc: 0]generate_distributed_matrix: 15.848 [ms]
[OGL LOG][Proc: 0]init_precond: 0.022 [ms]
[OGL LOG][Proc: 0]generate_solver: 0.002 [ms]
[OGL LOG][Proc: 0]solve: 822.22 [ms]
[OGL LOG][Proc: 0]copy_x_back: 1.851 [ms]
[OGL LOG][lduLduBase.H:380] 
Statistics:
	Time per iteration: 576 [mu s]
	Time per iteration and DOF: 0.072000 [ns]
	Retrieve results bandwith 2.160000 [GByte/s]
nonecudaGKOCG:  Solving for p, Initial residual = 0.0117745, Final residual = 6.22529e-05, No Iterations 1426
linear solve p 866390
time step continuity errors : sum local = 4.12387e-10, global = -2.22624e-22, cumulative = -8.91335e-22
ExecutionTime = 51.99 s  ClockTime = 54 s

Time = 0.0006

Courant Number mean: 0.00550382 max: 0.0932185
DILUPBiCGStab:  Solving for Ux, Initial residual = 0.0141665, Final residual = 1.6007e-06, No Iterations 5
DILUPBiCGStab:  Solving for Uy, Initial residual = 0.0209902, Final residual = 1.3672e-06, No Iterations 5
DILUPBiCGStab:  Solving for Uz, Initial residual = 0.0383972, Final residual = 1.67e-06, No Iterations 5
linear solve U 755408
[OGL LOG][Proc: 0]global_index_init: 0.035 [ms]
[OGL LOG][Proc: 0]global_index_init: 0.018 [ms]
[OGL LOG][Proc: 0]update_host_matrix_data: 18.207 [ms]
[OGL LOG][Proc: 0]gather_global_matrix: 0 [ms]
[OGL LOG][Proc: 0]generate_distributed_matrix: 15.215 [ms]
[OGL LOG][Proc: 0]init_precond: 0.022 [ms]
[OGL LOG][Proc: 0]generate_solver: 0.002 [ms]
[OGL LOG][Proc: 0]solve: 820.745 [ms]
[OGL LOG][Proc: 0]copy_x_back: 1.9 [ms]
[OGL LOG][lduLduBase.H:380] 
Statistics:
	Time per iteration: 575 [mu s]
	Time per iteration and DOF: 0.071875 [ns]
	Retrieve results bandwith 2.105000 [GByte/s]
nonecudaGKOCG:  Solving for p, Initial residual = 0.0115252, Final residual = 6.70097e-05, No Iterations 1426
linear solve p 863937
time step continuity errors : sum local = 4.44173e-10, global = -1.4475e-22, cumulative = -1.03609e-21
[OGL LOG][Proc: 0]global_index_init: 0.022 [ms]
[OGL LOG][Proc: 0]global_index_init: 0.016 [ms]
[OGL LOG][Proc: 0]update_host_matrix_data: 18.102 [ms]
[OGL LOG][Proc: 0]gather_global_matrix: 0 [ms]
[OGL LOG][Proc: 0]generate_distributed_matrix: 15.671 [ms]
[OGL LOG][Proc: 0]init_precond: 0.031 [ms]
[OGL LOG][Proc: 0]generate_solver: 0.002 [ms]
[OGL LOG][Proc: 0]solve: 819.099 [ms]
[OGL LOG][Proc: 0]copy_x_back: 1.693 [ms]
[OGL LOG][lduLduBase.H:380] 
Statistics:
	Time per iteration: 574 [mu s]
	Time per iteration and DOF: 0.071750 [ns]
	Retrieve results bandwith 2.362000 [GByte/s]
nonecudaGKOCG:  Solving for p, Initial residual = 0.0103847, Final residual = 5.17472e-05, No Iterations 1426
linear solve p 862969
time step continuity errors : sum local = 3.43324e-10, global = -1.67086e-22, cumulative = -1.20317e-21
ExecutionTime = 55.01 s  ClockTime = 57 s

Time = 0.00065

Courant Number mean: 0.00571301 max: 0.093502
DILUPBiCGStab:  Solving for Ux, Initial residual = 0.0130118, Final residual = 1.41146e-06, No Iterations 5
DILUPBiCGStab:  Solving for Uy, Initial residual = 0.0191479, Final residual = 1.19257e-06, No Iterations 5
DILUPBiCGStab:  Solving for Uz, Initial residual = 0.0353696, Final residual = 1.48293e-06, No Iterations 5
linear solve U 758206
[OGL LOG][Proc: 0]global_index_init: 0.027 [ms]
[OGL LOG][Proc: 0]global_index_init: 0.011 [ms]
[OGL LOG][Proc: 0]update_host_matrix_data: 18.176 [ms]
[OGL LOG][Proc: 0]gather_global_matrix: 0 [ms]
[OGL LOG][Proc: 0]generate_distributed_matrix: 16.79 [ms]
[OGL LOG][Proc: 0]init_precond: 0.032 [ms]
[OGL LOG][Proc: 0]generate_solver: 0.002 [ms]
[OGL LOG][Proc: 0]solve: 823.522 [ms]
[OGL LOG][Proc: 0]copy_x_back: 1.773 [ms]
[OGL LOG][lduLduBase.H:380] 
Statistics:
	Time per iteration: 577 [mu s]
	Time per iteration and DOF: 0.072125 [ns]
	Retrieve results bandwith 2.256000 [GByte/s]
nonecudaGKOCG:  Solving for p, Initial residual = 0.0102146, Final residual = 5.79701e-05, No Iterations 1426
linear solve p 868221
time step continuity errors : sum local = 3.84811e-10, global = -2.08473e-22, cumulative = -1.41164e-21
[OGL LOG][Proc: 0]global_index_init: 0.037 [ms]
[OGL LOG][Proc: 0]global_index_init: 0.017 [ms]
[OGL LOG][Proc: 0]update_host_matrix_data: 18.254 [ms]
[OGL LOG][Proc: 0]gather_global_matrix: 0 [ms]
[OGL LOG][Proc: 0]generate_distributed_matrix: 15.429 [ms]
[OGL LOG][Proc: 0]init_precond: 0.022 [ms]
[OGL LOG][Proc: 0]generate_solver: 0.001 [ms]
[OGL LOG][Proc: 0]solve: 822.276 [ms]
[OGL LOG][Proc: 0]copy_x_back: 1.816 [ms]
[OGL LOG][lduLduBase.H:380] 
Statistics:
	Time per iteration: 576 [mu s]
	Time per iteration and DOF: 0.072000 [ns]
	Retrieve results bandwith 2.202000 [GByte/s]
nonecudaGKOCG:  Solving for p, Initial residual = 0.00922595, Final residual = 4.72747e-05, No Iterations 1426
linear solve p 865986
time step continuity errors : sum local = 3.14067e-10, global = -1.68491e-22, cumulative = -1.58013e-21
ExecutionTime = 58.06 s  ClockTime = 60 s

Time = 0.0007

Courant Number mean: 0.00591023 max: 0.0937498
DILUPBiCGStab:  Solving for Ux, Initial residual = 0.0120289, Final residual = 1.25619e-06, No Iterations 5
DILUPBiCGStab:  Solving for Uy, Initial residual = 0.0175964, Final residual = 1.05228e-06, No Iterations 5
DILUPBiCGStab:  Solving for Uz, Initial residual = 0.0327914, Final residual = 1.34797e-06, No Iterations 5
linear solve U 755012
[OGL LOG][Proc: 0]global_index_init: 0.038 [ms]
[OGL LOG][Proc: 0]global_index_init: 0.019 [ms]
[OGL LOG][Proc: 0]update_host_matrix_data: 18.414 [ms]
[OGL LOG][Proc: 0]gather_global_matrix: 0 [ms]
[OGL LOG][Proc: 0]generate_distributed_matrix: 14.955 [ms]
[OGL LOG][Proc: 0]init_precond: 0.021 [ms]
[OGL LOG][Proc: 0]generate_solver: 0.001 [ms]
[OGL LOG][Proc: 0]solve: 822.424 [ms]
[OGL LOG][Proc: 0]copy_x_back: 1.806 [ms]
[OGL LOG][lduLduBase.H:380] 
Statistics:
	Time per iteration: 576 [mu s]
	Time per iteration and DOF: 0.072000 [ns]
	Retrieve results bandwith 2.214000 [GByte/s]
nonecudaGKOCG:  Solving for p, Initial residual = 0.00915396, Final residual = 5.10654e-05, No Iterations 1426
linear solve p 865580
time step continuity errors : sum local = 3.39423e-10, global = -2.25176e-22, cumulative = -1.80531e-21
[OGL LOG][Proc: 0]global_index_init: 0.018 [ms]
[OGL LOG][Proc: 0]global_index_init: 0.012 [ms]
[OGL LOG][Proc: 0]update_host_matrix_data: 18.423 [ms]
[OGL LOG][Proc: 0]gather_global_matrix: 0 [ms]
[OGL LOG][Proc: 0]generate_distributed_matrix: 15.217 [ms]
[OGL LOG][Proc: 0]init_precond: 0.03 [ms]
[OGL LOG][Proc: 0]generate_solver: 0.002 [ms]
[OGL LOG][Proc: 0]solve: 823.99 [ms]
[OGL LOG][Proc: 0]copy_x_back: 1.941 [ms]
[OGL LOG][lduLduBase.H:380] 
Statistics:
	Time per iteration: 577 [mu s]
	Time per iteration and DOF: 0.072125 [ns]
	Retrieve results bandwith 2.060000 [GByte/s]
nonecudaGKOCG:  Solving for p, Initial residual = 0.00827317, Final residual = 4.06086e-05, No Iterations 1426
linear solve p 867264
time step continuity errors : sum local = 2.70112e-10, global = -7.7977e-23, cumulative = -1.88329e-21
ExecutionTime = 61.09 s  ClockTime = 63 s

Time = 0.00075

Courant Number mean: 0.00609751 max: 0.0939687
DILUPBiCGStab:  Solving for Ux, Initial residual = 0.0111822, Final residual = 1.1272e-06, No Iterations 5
DILUPBiCGStab:  Solving for Uy, Initial residual = 0.0162719, Final residual = 9.38983e-07, No Iterations 5
DILUPBiCGStab:  Solving for Uz, Initial residual = 0.0305568, Final residual = 1.25527e-06, No Iterations 5
linear solve U 755408
[OGL LOG][Proc: 0]global_index_init: 0.023 [ms]
[OGL LOG][Proc: 0]global_index_init: 0.012 [ms]
[OGL LOG][Proc: 0]update_host_matrix_data: 18.187 [ms]
[OGL LOG][Proc: 0]gather_global_matrix: 0 [ms]
[OGL LOG][Proc: 0]generate_distributed_matrix: 15.38 [ms]
[OGL LOG][Proc: 0]init_precond: 0.022 [ms]
[OGL LOG][Proc: 0]generate_solver: 0.001 [ms]
[OGL LOG][Proc: 0]solve: 826.171 [ms]
[OGL LOG][Proc: 0]copy_x_back: 1.882 [ms]
[OGL LOG][lduLduBase.H:380] 
Statistics:
	Time per iteration: 579 [mu s]
	Time per iteration and DOF: 0.072375 [ns]
	Retrieve results bandwith 2.125000 [GByte/s]
nonecudaGKOCG:  Solving for p, Initial residual = 0.00826679, Final residual = 4.46996e-05, No Iterations 1426
linear solve p 869249
time step continuity errors : sum local = 2.97467e-10, global = 4.66207e-23, cumulative = -1.83667e-21
[OGL LOG][Proc: 0]global_index_init: 0.031 [ms]
[OGL LOG][Proc: 0]global_index_init: 0.012 [ms]
[OGL LOG][Proc: 0]update_host_matrix_data: 18.773 [ms]
[OGL LOG][Proc: 0]gather_global_matrix: 0 [ms]
[OGL LOG][Proc: 0]generate_distributed_matrix: 15.026 [ms]
[OGL LOG][Proc: 0]init_precond: 0.036 [ms]
[OGL LOG][Proc: 0]generate_solver: 0.002 [ms]
[OGL LOG][Proc: 0]solve: 788.121 [ms]
[OGL LOG][Proc: 0]copy_x_back: 1.829 [ms]
[OGL LOG][lduLduBase.H:380] 
Statistics:
	Time per iteration: 575 [mu s]
	Time per iteration and DOF: 0.071875 [ns]
	Retrieve results bandwith 2.186000 [GByte/s]
nonecudaGKOCG:  Solving for p, Initial residual = 0.00748085, Final residual = 9.57689e-05, No Iterations 1369
linear solve p 833873
time step continuity errors : sum local = 6.37789e-10, global = -3.47131e-22, cumulative = -2.1838e-21
ExecutionTime = 64.09 s  ClockTime = 66 s

Time = 0.0008

Courant Number mean: 0.00627528 max: 0.094164
DILUPBiCGStab:  Solving for Ux, Initial residual = 0.0104456, Final residual = 1.01864e-06, No Iterations 5
DILUPBiCGStab:  Solving for Uy, Initial residual = 0.0151282, Final residual = 8.45948e-07, No Iterations 5
DILUPBiCGStab:  Solving for Uz, Initial residual = 0.0285711, Final residual = 1.18784e-06, No Iterations 5
linear solve U 757576
[OGL LOG][Proc: 0]global_index_init: 0.023 [ms]
[OGL LOG][Proc: 0]global_index_init: 0.013 [ms]
[OGL LOG][Proc: 0]update_host_matrix_data: 18.248 [ms]
[OGL LOG][Proc: 0]gather_global_matrix: 0 [ms]
[OGL LOG][Proc: 0]generate_distributed_matrix: 15.093 [ms]
[OGL LOG][Proc: 0]init_precond: 0.032 [ms]
[OGL LOG][Proc: 0]generate_solver: 0.002 [ms]
[OGL LOG][Proc: 0]solve: 807.653 [ms]
[OGL LOG][Proc: 0]copy_x_back: 1.749 [ms]
[OGL LOG][lduLduBase.H:380] 
Statistics:
	Time per iteration: 574 [mu s]
	Time per iteration and DOF: 0.071750 [ns]
	Retrieve results bandwith 2.287000 [GByte/s]
nonecudaGKOCG:  Solving for p, Initial residual = 0.00764606, Final residual = 3.59006e-05, No Iterations 1405
linear solve p 850261
time step continuity errors : sum local = 2.39212e-10, global = -3.67661e-22, cumulative = -2.55146e-21
[OGL LOG][Proc: 0]global_index_init: 0.022 [ms]
[OGL LOG][Proc: 0]global_index_init: 0.016 [ms]
[OGL LOG][Proc: 0]update_host_matrix_data: 18.295 [ms]
[OGL LOG][Proc: 0]gather_global_matrix: 0 [ms]
[OGL LOG][Proc: 0]generate_distributed_matrix: 17.761 [ms]
[OGL LOG][Proc: 0]init_precond: 0.021 [ms]
[OGL LOG][Proc: 0]generate_solver: 0.001 [ms]
[OGL LOG][Proc: 0]solve: 808.937 [ms]
[OGL LOG][Proc: 0]copy_x_back: 1.814 [ms]
[OGL LOG][lduLduBase.H:380] 
Statistics:
	Time per iteration: 577 [mu s]
	Time per iteration and DOF: 0.072125 [ns]
	Retrieve results bandwith 2.205000 [GByte/s]
nonecudaGKOCG:  Solving for p, Initial residual = 0.00689401, Final residual = 3.31529e-05, No Iterations 1401
linear solve p 855000
time step continuity errors : sum local = 2.21024e-10, global = -2.05632e-22, cumulative = -2.75709e-21
ExecutionTime = 67.1 s  ClockTime = 69 s

Time = 0.00085

Courant Number mean: 0.00644504 max: 0.0943396
DILUPBiCGStab:  Solving for Ux, Initial residual = 0.00979774, Final residual = 9.26829e-07, No Iterations 5
DILUPBiCGStab:  Solving for Uy, Initial residual = 0.0141304, Final residual = 7.6862e-07, No Iterations 5
DILUPBiCGStab:  Solving for Uz, Initial residual = 0.0268389, Final residual = 1.12908e-06, No Iterations 5
linear solve U 756970
[OGL LOG][Proc: 0]global_index_init: 0.041 [ms]
[OGL LOG][Proc: 0]global_index_init: 0.019 [ms]
[OGL LOG][Proc: 0]update_host_matrix_data: 18.469 [ms]
[OGL LOG][Proc: 0]gather_global_matrix: 0 [ms]
[OGL LOG][Proc: 0]generate_distributed_matrix: 16.276 [ms]
[OGL LOG][Proc: 0]init_precond: 0.03 [ms]
[OGL LOG][Proc: 0]generate_solver: 0.002 [ms]
[OGL LOG][Proc: 0]solve: 804.581 [ms]
[OGL LOG][Proc: 0]copy_x_back: 1.824 [ms]
[OGL LOG][lduLduBase.H:380] 
Statistics:
	Time per iteration: 574 [mu s]
	Time per iteration and DOF: 0.071750 [ns]
	Retrieve results bandwith 2.192000 [GByte/s]
nonecudaGKOCG:  Solving for p, Initial residual = 0.00694209, Final residual = 4.12886e-05, No Iterations 1401
linear solve p 848864
time step continuity errors : sum local = 2.75373e-10, global = -4.5232e-22, cumulative = -3.20941e-21
[OGL LOG][Proc: 0]global_index_init: 0.033 [ms]
[OGL LOG][Proc: 0]global_index_init: 0.018 [ms]
[OGL LOG][Proc: 0]update_host_matrix_data: 18.095 [ms]
[OGL LOG][Proc: 0]gather_global_matrix: 0 [ms]
[OGL LOG][Proc: 0]generate_distributed_matrix: 15.406 [ms]
[OGL LOG][Proc: 0]init_precond: 0.032 [ms]
[OGL LOG][Proc: 0]generate_solver: 0.002 [ms]
[OGL LOG][Proc: 0]solve: 803.005 [ms]
[OGL LOG][Proc: 0]copy_x_back: 1.927 [ms]
[OGL LOG][lduLduBase.H:380] 
Statistics:
	Time per iteration: 573 [mu s]
	Time per iteration and DOF: 0.071625 [ns]
	Retrieve results bandwith 2.075000 [GByte/s]
nonecudaGKOCG:  Solving for p, Initial residual = 0.0062865, Final residual = 3.08444e-05, No Iterations 1401
linear solve p 846236
time step continuity errors : sum local = 2.05824e-10, global = -2.6055e-22, cumulative = -3.46996e-21
ExecutionTime = 70.09 s  ClockTime = 72 s

Time = 0.0009

Courant Number mean: 0.00660758 max: 0.0944986
DILUPBiCGStab:  Solving for Ux, Initial residual = 0.00922467, Final residual = 8.48367e-07, No Iterations 5
DILUPBiCGStab:  Solving for Uy, Initial residual = 0.0132526, Final residual = 7.03646e-07, No Iterations 5
DILUPBiCGStab:  Solving for Uz, Initial residual = 0.0253157, Final residual = 1.08017e-06, No Iterations 5
linear solve U 760130
[OGL LOG][Proc: 0]global_index_init: 0.026 [ms]
[OGL LOG][Proc: 0]global_index_init: 0.016 [ms]
[OGL LOG][Proc: 0]update_host_matrix_data: 18.272 [ms]
[OGL LOG][Proc: 0]gather_global_matrix: 0 [ms]
[OGL LOG][Proc: 0]generate_distributed_matrix: 18.325 [ms]
[OGL LOG][Proc: 0]init_precond: 0.022 [ms]
[OGL LOG][Proc: 0]generate_solver: 0.002 [ms]
[OGL LOG][Proc: 0]solve: 818.764 [ms]
[OGL LOG][Proc: 0]copy_x_back: 1.821 [ms]
[OGL LOG][lduLduBase.H:380] 
Statistics:
	Time per iteration: 584 [mu s]
	Time per iteration and DOF: 0.073000 [ns]
	Retrieve results bandwith 2.196000 [GByte/s]
nonecudaGKOCG:  Solving for p, Initial residual = 0.00638352, Final residual = 3.42308e-05, No Iterations 1401
linear solve p 865017
time step continuity errors : sum local = 2.28504e-10, global = -2.79787e-22, cumulative = -3.74975e-21
[OGL LOG][Proc: 0]global_index_init: 0.028 [ms]
[OGL LOG][Proc: 0]global_index_init: 0.014 [ms]
[OGL LOG][Proc: 0]update_host_matrix_data: 18.098 [ms]
[OGL LOG][Proc: 0]gather_global_matrix: 0 [ms]
[OGL LOG][Proc: 0]generate_distributed_matrix: 17.096 [ms]
[OGL LOG][Proc: 0]init_precond: 0.03 [ms]
[OGL LOG][Proc: 0]generate_solver: 0.002 [ms]
[OGL LOG][Proc: 0]solve: 664.414 [ms]
[OGL LOG][Proc: 0]copy_x_back: 1.77 [ms]
[OGL LOG][lduLduBase.H:380] 
Statistics:
	Time per iteration: 592 [mu s]
	Time per iteration and DOF: 0.074000 [ns]
	Retrieve results bandwith 2.259000 [GByte/s]
nonecudaGKOCG:  Solving for p, Initial residual = 0.00578864, Final residual = 9.85235e-05, No Iterations 1121
linear solve p 709847
time step continuity errors : sum local = 6.62955e-10, global = -2.71915e-22, cumulative = -4.02166e-21
ExecutionTime = 72.97 s  ClockTime = 75 s

Time = 0.00095

Courant Number mean: 0.00676314 max: 0.0946434
DILUPBiCGStab:  Solving for Ux, Initial residual = 0.00871197, Final residual = 7.80657e-07, No Iterations 5
DILUPBiCGStab:  Solving for Uy, Initial residual = 0.0124751, Final residual = 6.4886e-07, No Iterations 5
DILUPBiCGStab:  Solving for Uz, Initial residual = 0.0239866, Final residual = 1.00635e-06, No Iterations 5
linear solve U 754828
[OGL LOG][Proc: 0]global_index_init: 0.033 [ms]
[OGL LOG][Proc: 0]global_index_init: 0.012 [ms]
[OGL LOG][Proc: 0]update_host_matrix_data: 18.315 [ms]
[OGL LOG][Proc: 0]gather_global_matrix: 0 [ms]
[OGL LOG][Proc: 0]generate_distributed_matrix: 15.466 [ms]
[OGL LOG][Proc: 0]init_precond: 0.022 [ms]
[OGL LOG][Proc: 0]generate_solver: 0.001 [ms]
[OGL LOG][Proc: 0]solve: 553.339 [ms]
[OGL LOG][Proc: 0]copy_x_back: 1.706 [ms]
[OGL LOG][lduLduBase.H:380] 
Statistics:
	Time per iteration: 598 [mu s]
	Time per iteration and DOF: 0.074750 [ns]
	Retrieve results bandwith 2.344000 [GByte/s]
nonecudaGKOCG:  Solving for p, Initial residual = 0.00604557, Final residual = 1.52514e-05, No Iterations 925
linear solve p 597133
time step continuity errors : sum local = 1.08178e-10, global = 1.60776e-22, cumulative = -3.86089e-21
[OGL LOG][Proc: 0]global_index_init: 0.028 [ms]
[OGL LOG][Proc: 0]global_index_init: 0.012 [ms]
[OGL LOG][Proc: 0]update_host_matrix_data: 18.029 [ms]
[OGL LOG][Proc: 0]gather_global_matrix: 0 [ms]
[OGL LOG][Proc: 0]generate_distributed_matrix: 15.877 [ms]
[OGL LOG][Proc: 0]init_precond: 0.022 [ms]
[OGL LOG][Proc: 0]generate_solver: 0.001 [ms]
[OGL LOG][Proc: 0]solve: 444.791 [ms]
[OGL LOG][Proc: 0]copy_x_back: 1.842 [ms]
[OGL LOG][lduLduBase.H:380] 
Statistics:
	Time per iteration: 600 [mu s]
	Time per iteration and DOF: 0.075000 [ns]
	Retrieve results bandwith 2.171000 [GByte/s]
nonecudaGKOCG:  Solving for p, Initial residual = 0.00545362, Final residual = 1.01042e-05, No Iterations 741
linear solve p 488562
time step continuity errors : sum local = 7.41677e-11, global = 5.13122e-22, cumulative = -3.34777e-21
ExecutionTime = 75.37 s  ClockTime = 77 s

Time = 0.001

Courant Number mean: 0.00691272 max: 0.0947761
DILUPBiCGStab:  Solving for Ux, Initial residual = 0.00825336, Final residual = 7.21949e-07, No Iterations 5
DILUPBiCGStab:  Solving for Uy, Initial residual = 0.0117797, Final residual = 6.0222e-07, No Iterations 5
DILUPBiCGStab:  Solving for Uz, Initial residual = 0.0228034, Final residual = 9.99457e-07, No Iterations 5
linear solve U 754672
[OGL LOG][Proc: 0]global_index_init: 0.019 [ms]
[OGL LOG][Proc: 0]global_index_init: 0.012 [ms]
[OGL LOG][Proc: 0]update_host_matrix_data: 18.012 [ms]
[OGL LOG][Proc: 0]gather_global_matrix: 0 [ms]
[OGL LOG][Proc: 0]generate_distributed_matrix: 14.949 [ms]
[OGL LOG][Proc: 0]init_precond: 0.023 [ms]
[OGL LOG][Proc: 0]generate_solver: 0.001 [ms]
[OGL LOG][Proc: 0]solve: 372.139 [ms]
[OGL LOG][Proc: 0]copy_x_back: 1.715 [ms]
[OGL LOG][lduLduBase.H:380] 
Statistics:
	Time per iteration: 610 [mu s]
	Time per iteration and DOF: 0.076250 [ns]
	Retrieve results bandwith 2.332000 [GByte/s]
nonecudaGKOCG:  Solving for p, Initial residual = 0.00544949, Final residual = 2.27305e-05, No Iterations 610
linear solve p 414981
time step continuity errors : sum local = 1.53553e-10, global = -6.58216e-23, cumulative = -3.41359e-21
[OGL LOG][Proc: 0]global_index_init: 0.028 [ms]
[OGL LOG][Proc: 0]global_index_init: 0.014 [ms]
[OGL LOG][Proc: 0]update_host_matrix_data: 18.07 [ms]
[OGL LOG][Proc: 0]gather_global_matrix: 0 [ms]
[OGL LOG][Proc: 0]generate_distributed_matrix: 15.2 [ms]
[OGL LOG][Proc: 0]init_precond: 0.023 [ms]
[OGL LOG][Proc: 0]generate_solver: 0.001 [ms]
[OGL LOG][Proc: 0]solve: 340.428 [ms]
[OGL LOG][Proc: 0]copy_x_back: 1.848 [ms]
[OGL LOG][lduLduBase.H:380] 
Statistics:
	Time per iteration: 615 [mu s]
	Time per iteration and DOF: 0.076875 [ns]
	Retrieve results bandwith 2.164000 [GByte/s]
nonecudaGKOCG:  Solving for p, Initial residual = 0.00493288, Final residual = 7.22192e-05, No Iterations 553
linear solve p 384077
time step continuity errors : sum local = 4.88011e-10, global = 1.0421e-23, cumulative = -3.40317e-21
ExecutionTime = 77.46 s  ClockTime = 79 s

End

Finalising parallel run
================================================================================
hash: 0ecc573c4b5ab7dd7313ab51eaa8ce37
/*---------------------------------------------------------------------------*\
| =========                 |                                                 |
| \\      /  F ield         | OpenFOAM: The Open Source CFD Toolbox           |
|  \\    /   O peration     | Version:  2112                                  |
|   \\  /    A nd           | Website:  www.openfoam.com                      |
|    \\/     M anipulation  |                                                 |
\*---------------------------------------------------------------------------*/
Build  : f8dc192941-20220507 OPENFOAM=2112 patch=220310 version=v2112
Arch   : "LSB;label=32;scalar=64"
Exec   : /global/homes/g/greole/OpenFOAM/openfoam/platforms/linux64GccDPInt32Opt/bin/icoFoam -parallel
Date   : Jun 23 2022
Time   : 04:54:58
Host   : nid002821
PID    : 25898
I/O    : uncollated
Case   : /pscratch/sd/g/greole/lidDrivenCavity/simple/Variation_mesh/200/Variation_matrix_solver/CG_NoPrecond_CUDA/Variation_mpiRank_gko/8/base
nProcs : 8
Hosts  :
(
    (nid002821 4)
    (nid002824 4)
)
Pstream initialized with:
    floatTransfer      : 0
    nProcsSimpleSum    : 0
    commsType          : nonBlocking
    polling iterations : 0
trapFpe: Floating point exception trapping enabled (FOAM_SIGFPE).
fileModificationChecking : Monitoring run-time modified files using timeStampMaster (fileModificationSkew 5, maxFileModificationPolls 20)
allowSystemOperations : Allowing user-supplied system call operations

// * * * * * * * * * * * * * * * * * * * * * * * * * * * * * * * * * * * * * //
Create time

Create mesh for time = 0


PISO: Operating solver in PISO mode

Reading transportProperties

Reading field p

Reading field U

Reading/calculating face flux field phi


Starting time loop

Time = 5e-05

Courant Number mean: 0 max: 0
DILUPBiCGStab:  Solving for Ux, Initial residual = 1, Final residual = 0.000101849, No Iterations 5
DILUPBiCGStab:  Solving for Uy:  solution singularity
DILUPBiCGStab:  Solving for Uz:  solution singularity
linear solve U 762737
[OGL LOG][Proc: 0]global_index_init: 46.236 [ms]
[OGL LOG][Proc: 0]global_index_init: 0.014 [ms]
[OGL LOG][Proc: 0]init_host_sparsity_pattern: 18082.1 [ms]
[OGL LOG][Proc: 0]update_host_matrix_data: 15.77 [ms]
[OGL LOG][Proc: 0]convert_coo_to_csr: 267.663 [ms]
[OGL LOG][lduLduBase.H:153] Initialising OGL
	Version:  484b851+
	branch: HEAD 
	Ginkgo version: 1.5.0(develop)
	MPI is GPU aware: 1)
	Forces host buffer based communication: 1
[OGL LOG][Proc: 0]gather_global_matrix: 0.002 [ms]
[OGL LOG][Proc: 0]generate_distributed_matrix: 23.131 [ms]
[OGL LOG][Proc: 0]init_precond: 0.043 [ms]
[OGL LOG][Proc: 0]generate_solver: 0.041 [ms]
[OGL LOG][Proc: 0]solve: 1277.43 [ms]
[OGL LOG][Proc: 0]copy_x_back: 4.013 [ms]
[OGL LOG][lduLduBase.H:380] 
Statistics:
	Time per iteration: 790 [mu s]
	Time per iteration and DOF: 0.098750 [ns]
	Retrieve results bandwith 1.993000 [GByte/s]
nonecudaGKOCG:  Solving for p, Initial residual = 1, Final residual = 9.96654e-05, No Iterations 1615
linear solve p 22285421
time step continuity errors : sum local = 6.58856e-10, global = 4.79298e-22, cumulative = 4.79298e-22
[OGL LOG][Proc: 0]global_index_init: 0.016 [ms]
[OGL LOG][Proc: 0]global_index_init: 0.009 [ms]
[OGL LOG][Proc: 0]update_host_matrix_data: 33.928 [ms]
[OGL LOG][Proc: 0]gather_global_matrix: 0 [ms]
[OGL LOG][Proc: 0]generate_distributed_matrix: 21.371 [ms]
[OGL LOG][Proc: 0]init_precond: 0.026 [ms]
[OGL LOG][Proc: 0]generate_solver: 0.002 [ms]
[OGL LOG][Proc: 0]solve: 1082.51 [ms]
[OGL LOG][Proc: 0]copy_x_back: 4.192 [ms]
[OGL LOG][lduLduBase.H:380] 
Statistics:
	Time per iteration: 676 [mu s]
	Time per iteration and DOF: 0.084500 [ns]
	Retrieve results bandwith 1.908000 [GByte/s]
nonecudaGKOCG:  Solving for p, Initial residual = 0.64488, Final residual = 7.60025e-05, No Iterations 1601
linear solve p 1154349
time step continuity errors : sum local = 7.2586e-10, global = 1.63032e-23, cumulative = 4.95601e-22
ExecutionTime = 30.4 s  ClockTime = 31 s

Time = 0.0001

Courant Number mean: 0.00156137 max: 0.0657803
DILUPBiCGStab:  Solving for Ux, Initial residual = 0.189842, Final residual = 5.80522e-05, No Iterations 5
DILUPBiCGStab:  Solving for Uy, Initial residual = 0.330048, Final residual = 4.20705e-05, No Iterations 5
DILUPBiCGStab:  Solving for Uz, Initial residual = 0.992951, Final residual = 0.000118349, No Iterations 5
linear solve U 1569605
[OGL LOG][Proc: 0]global_index_init: 0.016 [ms]
[OGL LOG][Proc: 0]global_index_init: 0.01 [ms]
[OGL LOG][Proc: 0]update_host_matrix_data: 34.848 [ms]
[OGL LOG][Proc: 0]gather_global_matrix: 0 [ms]
[OGL LOG][Proc: 0]generate_distributed_matrix: 22.687 [ms]
[OGL LOG][Proc: 0]init_precond: 0.024 [ms]
[OGL LOG][Proc: 0]generate_solver: 0.001 [ms]
[OGL LOG][Proc: 0]solve: 1101.95 [ms]
[OGL LOG][Proc: 0]copy_x_back: 4.368 [ms]
[OGL LOG][lduLduBase.H:380] 
Statistics:
	Time per iteration: 688 [mu s]
	Time per iteration and DOF: 0.086000 [ns]
	Retrieve results bandwith 1.831000 [GByte/s]
nonecudaGKOCG:  Solving for p, Initial residual = 0.509209, Final residual = 3.46175e-05, No Iterations 1601
linear solve p 1175647
time step continuity errors : sum local = 3.21919e-10, global = -4.12795e-23, cumulative = 4.54322e-22
[OGL LOG][Proc: 0]global_index_init: 0.017 [ms]
[OGL LOG][Proc: 0]global_index_init: 0.009 [ms]
[OGL LOG][Proc: 0]update_host_matrix_data: 34.395 [ms]
[OGL LOG][Proc: 0]gather_global_matrix: 0 [ms]
[OGL LOG][Proc: 0]generate_distributed_matrix: 21.55 [ms]
[OGL LOG][Proc: 0]init_precond: 0.021 [ms]
[OGL LOG][Proc: 0]generate_solver: 0.001 [ms]
[OGL LOG][Proc: 0]solve: 1080.23 [ms]
[OGL LOG][Proc: 0]copy_x_back: 4.205 [ms]
[OGL LOG][lduLduBase.H:380] 
Statistics:
	Time per iteration: 674 [mu s]
	Time per iteration and DOF: 0.084250 [ns]
	Retrieve results bandwith 1.902000 [GByte/s]
nonecudaGKOCG:  Solving for p, Initial residual = 0.419895, Final residual = 3.27793e-05, No Iterations 1601
linear solve p 1152355
time step continuity errors : sum local = 3.14249e-10, global = 7.85702e-23, cumulative = 5.32892e-22
ExecutionTime = 35.45 s  ClockTime = 37 s

Time = 0.00015

Courant Number mean: 0.0024116 max: 0.0810517
DILUPBiCGStab:  Solving for Ux, Initial residual = 0.08035, Final residual = 1.98699e-05, No Iterations 5
DILUPBiCGStab:  Solving for Uy, Initial residual = 0.137292, Final residual = 8.30118e-06, No Iterations 5
DILUPBiCGStab:  Solving for Uz, Initial residual = 0.090275, Final residual = 2.5259e-05, No Iterations 5
linear solve U 1574008
[OGL LOG][Proc: 0]global_index_init: 0.021 [ms]
[OGL LOG][Proc: 0]global_index_init: 0.01 [ms]
[OGL LOG][Proc: 0]update_host_matrix_data: 34.878 [ms]
[OGL LOG][Proc: 0]gather_global_matrix: 0 [ms]
[OGL LOG][Proc: 0]generate_distributed_matrix: 25.439 [ms]
[OGL LOG][Proc: 0]init_precond: 0.025 [ms]
[OGL LOG][Proc: 0]generate_solver: 0.001 [ms]
[OGL LOG][Proc: 0]solve: 1063.24 [ms]
[OGL LOG][Proc: 0]copy_x_back: 4.264 [ms]
[OGL LOG][lduLduBase.H:380] 
Statistics:
	Time per iteration: 691 [mu s]
	Time per iteration and DOF: 0.086375 [ns]
	Retrieve results bandwith 1.876000 [GByte/s]
nonecudaGKOCG:  Solving for p, Initial residual = 0.252531, Final residual = 8.50747e-05, No Iterations 1537
linear solve p 1139578
time step continuity errors : sum local = 6.11771e-10, global = 6.37604e-23, cumulative = 5.96652e-22
[OGL LOG][Proc: 0]global_index_init: 0.022 [ms]
[OGL LOG][Proc: 0]global_index_init: 0.009 [ms]
[OGL LOG][Proc: 0]update_host_matrix_data: 34.093 [ms]
[OGL LOG][Proc: 0]gather_global_matrix: 0 [ms]
[OGL LOG][Proc: 0]generate_distributed_matrix: 20.267 [ms]
[OGL LOG][Proc: 0]init_precond: 0.022 [ms]
[OGL LOG][Proc: 0]generate_solver: 0.001 [ms]
[OGL LOG][Proc: 0]solve: 1035.64 [ms]
[OGL LOG][Proc: 0]copy_x_back: 4.214 [ms]
[OGL LOG][lduLduBase.H:380] 
Statistics:
	Time per iteration: 678 [mu s]
	Time per iteration and DOF: 0.084750 [ns]
	Retrieve results bandwith 1.898000 [GByte/s]
nonecudaGKOCG:  Solving for p, Initial residual = 0.208917, Final residual = 9.91324e-05, No Iterations 1526
linear solve p 1107128
time step continuity errors : sum local = 7.05139e-10, global = 1.49796e-23, cumulative = 6.11632e-22
ExecutionTime = 40.41 s  ClockTime = 41 s

Time = 0.0002

Courant Number mean: 0.00299655 max: 0.0859678
DILUPBiCGStab:  Solving for Ux, Initial residual = 0.0511426, Final residual = 9.40436e-06, No Iterations 5
DILUPBiCGStab:  Solving for Uy, Initial residual = 0.0858847, Final residual = 5.37959e-06, No Iterations 5
DILUPBiCGStab:  Solving for Uz, Initial residual = 0.111559, Final residual = 1.47283e-05, No Iterations 5
linear solve U 1574107
[OGL LOG][Proc: 0]global_index_init: 0.019 [ms]
[OGL LOG][Proc: 0]global_index_init: 0.009 [ms]
[OGL LOG][Proc: 0]update_host_matrix_data: 34.241 [ms]
[OGL LOG][Proc: 0]gather_global_matrix: 0 [ms]
[OGL LOG][Proc: 0]generate_distributed_matrix: 22.633 [ms]
[OGL LOG][Proc: 0]init_precond: 0.022 [ms]
[OGL LOG][Proc: 0]generate_solver: 0.001 [ms]
[OGL LOG][Proc: 0]solve: 1059.49 [ms]
[OGL LOG][Proc: 0]copy_x_back: 4.094 [ms]
[OGL LOG][lduLduBase.H:380] 
Statistics:
	Time per iteration: 694 [mu s]
	Time per iteration and DOF: 0.086750 [ns]
	Retrieve results bandwith 1.954000 [GByte/s]
nonecudaGKOCG:  Solving for p, Initial residual = 0.12252, Final residual = 6.25952e-05, No Iterations 1526
linear solve p 1131698
time step continuity errors : sum local = 4.23103e-10, global = -1.18634e-22, cumulative = 4.92998e-22
[OGL LOG][Proc: 0]global_index_init: 0.017 [ms]
[OGL LOG][Proc: 0]global_index_init: 0.009 [ms]
[OGL LOG][Proc: 0]update_host_matrix_data: 34.004 [ms]
[OGL LOG][Proc: 0]gather_global_matrix: 0 [ms]
[OGL LOG][Proc: 0]generate_distributed_matrix: 20.732 [ms]
[OGL LOG][Proc: 0]init_precond: 0.022 [ms]
[OGL LOG][Proc: 0]generate_solver: 0.001 [ms]
[OGL LOG][Proc: 0]solve: 1033.13 [ms]
[OGL LOG][Proc: 0]copy_x_back: 3.988 [ms]
[OGL LOG][lduLduBase.H:380] 
Statistics:
	Time per iteration: 677 [mu s]
	Time per iteration and DOF: 0.084625 [ns]
	Retrieve results bandwith 2.006000 [GByte/s]
nonecudaGKOCG:  Solving for p, Initial residual = 0.0992351, Final residual = 5.2171e-05, No Iterations 1526
linear solve p 1104444
time step continuity errors : sum local = 3.56578e-10, global = 1.06998e-22, cumulative = 5.99996e-22
ExecutionTime = 45.37 s  ClockTime = 46 s

Time = 0.00025

Courant Number mean: 0.00346139 max: 0.0883161
DILUPBiCGStab:  Solving for Ux, Initial residual = 0.0380466, Final residual = 4.58246e-06, No Iterations 5
DILUPBiCGStab:  Solving for Uy, Initial residual = 0.061993, Final residual = 4.10973e-06, No Iterations 5
DILUPBiCGStab:  Solving for Uz, Initial residual = 0.0916754, Final residual = 7.58939e-06, No Iterations 5
linear solve U 1575974
[OGL LOG][Proc: 0]global_index_init: 0.022 [ms]
[OGL LOG][Proc: 0]global_index_init: 0.01 [ms]
[OGL LOG][Proc: 0]update_host_matrix_data: 34.234 [ms]
[OGL LOG][Proc: 0]gather_global_matrix: 0 [ms]
[OGL LOG][Proc: 0]generate_distributed_matrix: 22.588 [ms]
[OGL LOG][Proc: 0]init_precond: 0.023 [ms]
[OGL LOG][Proc: 0]generate_solver: 0.001 [ms]
[OGL LOG][Proc: 0]solve: 1061.74 [ms]
[OGL LOG][Proc: 0]copy_x_back: 4.327 [ms]
[OGL LOG][lduLduBase.H:380] 
Statistics:
	Time per iteration: 695 [mu s]
	Time per iteration and DOF: 0.086875 [ns]
	Retrieve results bandwith 1.848000 [GByte/s]
nonecudaGKOCG:  Solving for p, Initial residual = 0.0621041, Final residual = 4.25799e-05, No Iterations 1526
linear solve p 1134392
time step continuity errors : sum local = 2.80986e-10, global = -6.5894e-23, cumulative = 5.34102e-22
[OGL LOG][Proc: 0]global_index_init: 0.024 [ms]
[OGL LOG][Proc: 0]global_index_init: 0.014 [ms]
[OGL LOG][Proc: 0]update_host_matrix_data: 34.329 [ms]
[OGL LOG][Proc: 0]gather_global_matrix: 0 [ms]
[OGL LOG][Proc: 0]generate_distributed_matrix: 20.701 [ms]
[OGL LOG][Proc: 0]init_precond: 0.022 [ms]
[OGL LOG][Proc: 0]generate_solver: 0.001 [ms]
[OGL LOG][Proc: 0]solve: 1037.43 [ms]
[OGL LOG][Proc: 0]copy_x_back: 3.657 [ms]
[OGL LOG][lduLduBase.H:380] 
Statistics:
	Time per iteration: 679 [mu s]
	Time per iteration and DOF: 0.084875 [ns]
	Retrieve results bandwith 2.187000 [GByte/s]
nonecudaGKOCG:  Solving for p, Initial residual = 0.0522199, Final residual = 3.52098e-05, No Iterations 1526
linear solve p 1108065
time step continuity errors : sum local = 2.32704e-10, global = -4.43425e-23, cumulative = 4.8976e-22
ExecutionTime = 50.33 s  ClockTime = 51 s

Time = 0.0003

Courant Number mean: 0.00385428 max: 0.0897419
DILUPBiCGStab:  Solving for Ux, Initial residual = 0.0304959, Final residual = 2.79359e-06, No Iterations 5
DILUPBiCGStab:  Solving for Uy, Initial residual = 0.0485946, Final residual = 3.03702e-06, No Iterations 5
DILUPBiCGStab:  Solving for Uz, Initial residual = 0.0768784, Final residual = 4.95337e-06, No Iterations 5
linear solve U 1575809
[OGL LOG][Proc: 0]global_index_init: 0.018 [ms]
[OGL LOG][Proc: 0]global_index_init: 0.01 [ms]
[OGL LOG][Proc: 0]update_host_matrix_data: 33.933 [ms]
[OGL LOG][Proc: 0]gather_global_matrix: 0 [ms]
[OGL LOG][Proc: 0]generate_distributed_matrix: 21.953 [ms]
[OGL LOG][Proc: 0]init_precond: 0.023 [ms]
[OGL LOG][Proc: 0]generate_solver: 0.001 [ms]
[OGL LOG][Proc: 0]solve: 1013.37 [ms]
[OGL LOG][Proc: 0]copy_x_back: 3.982 [ms]
[OGL LOG][lduLduBase.H:380] 
Statistics:
	Time per iteration: 691 [mu s]
	Time per iteration and DOF: 0.086375 [ns]
	Retrieve results bandwith 2.009000 [GByte/s]
nonecudaGKOCG:  Solving for p, Initial residual = 0.0392574, Final residual = 8.89287e-05, No Iterations 1465
linear solve p 1085724
time step continuity errors : sum local = 5.81664e-10, global = 9.51509e-23, cumulative = 5.84911e-22
[OGL LOG][Proc: 0]global_index_init: 0.019 [ms]
[OGL LOG][Proc: 0]global_index_init: 0.01 [ms]
[OGL LOG][Proc: 0]update_host_matrix_data: 34.123 [ms]
[OGL LOG][Proc: 0]gather_global_matrix: 0 [ms]
[OGL LOG][Proc: 0]generate_distributed_matrix: 21.495 [ms]
[OGL LOG][Proc: 0]init_precond: 0.022 [ms]
[OGL LOG][Proc: 0]generate_solver: 0.001 [ms]
[OGL LOG][Proc: 0]solve: 987.154 [ms]
[OGL LOG][Proc: 0]copy_x_back: 4.134 [ms]
[OGL LOG][lduLduBase.H:380] 
Statistics:
	Time per iteration: 680 [mu s]
	Time per iteration and DOF: 0.085000 [ns]
	Retrieve results bandwith 1.935000 [GByte/s]
nonecudaGKOCG:  Solving for p, Initial residual = 0.033206, Final residual = 9.7874e-05, No Iterations 1451
linear solve p 1058818
time step continuity errors : sum local = 6.42935e-10, global = 6.37903e-23, cumulative = 6.48701e-22
ExecutionTime = 55.2 s  ClockTime = 56 s

Time = 0.00035

Courant Number mean: 0.00419844 max: 0.0907273
DILUPBiCGStab:  Solving for Ux, Initial residual = 0.0255229, Final residual = 2.23708e-06, No Iterations 5
DILUPBiCGStab:  Solving for Uy, Initial residual = 0.039928, Final residual = 2.39988e-06, No Iterations 5
DILUPBiCGStab:  Solving for Uz, Initial residual = 0.0659111, Final residual = 3.18924e-06, No Iterations 5
linear solve U 1575931
[OGL LOG][Proc: 0]global_index_init: 0.03 [ms]
[OGL LOG][Proc: 0]global_index_init: 0.009 [ms]
[OGL LOG][Proc: 0]update_host_matrix_data: 33.63 [ms]
[OGL LOG][Proc: 0]gather_global_matrix: 0 [ms]
[OGL LOG][Proc: 0]generate_distributed_matrix: 22.886 [ms]
[OGL LOG][Proc: 0]init_precond: 0.023 [ms]
[OGL LOG][Proc: 0]generate_solver: 0.001 [ms]
[OGL LOG][Proc: 0]solve: 1010.45 [ms]
[OGL LOG][Proc: 0]copy_x_back: 4.238 [ms]
[OGL LOG][lduLduBase.H:380] 
Statistics:
	Time per iteration: 696 [mu s]
	Time per iteration and DOF: 0.087000 [ns]
	Retrieve results bandwith 1.887000 [GByte/s]
nonecudaGKOCG:  Solving for p, Initial residual = 0.0289349, Final residual = 8.22855e-05, No Iterations 1451
linear solve p 1083794
time step continuity errors : sum local = 5.39961e-10, global = 1.26312e-22, cumulative = 7.75013e-22
[OGL LOG][Proc: 0]global_index_init: 0.022 [ms]
[OGL LOG][Proc: 0]global_index_init: 0.009 [ms]
[OGL LOG][Proc: 0]update_host_matrix_data: 33.706 [ms]
[OGL LOG][Proc: 0]gather_global_matrix: 0 [ms]
[OGL LOG][Proc: 0]generate_distributed_matrix: 22.561 [ms]
[OGL LOG][Proc: 0]init_precond: 0.024 [ms]
[OGL LOG][Proc: 0]generate_solver: 0.001 [ms]
[OGL LOG][Proc: 0]solve: 1000.01 [ms]
[OGL LOG][Proc: 0]copy_x_back: 4.267 [ms]
[OGL LOG][lduLduBase.H:380] 
Statistics:
	Time per iteration: 689 [mu s]
	Time per iteration and DOF: 0.086125 [ns]
	Retrieve results bandwith 1.874000 [GByte/s]
nonecudaGKOCG:  Solving for p, Initial residual = 0.0251222, Final residual = 6.82861e-05, No Iterations 1451
linear solve p 1073502
time step continuity errors : sum local = 4.48933e-10, global = -1.13838e-23, cumulative = 7.6363e-22
ExecutionTime = 60.07 s  ClockTime = 61 s

Time = 0.0004

Courant Number mean: 0.00450622 max: 0.0914617
DILUPBiCGStab:  Solving for Ux, Initial residual = 0.0219749, Final residual = 1.93463e-06, No Iterations 5
DILUPBiCGStab:  Solving for Uy, Initial residual = 0.0338746, Final residual = 1.90699e-06, No Iterations 5
DILUPBiCGStab:  Solving for Uz, Initial residual = 0.0579259, Final residual = 2.35004e-06, No Iterations 5
linear solve U 1580916
[OGL LOG][Proc: 0]global_index_init: 0.018 [ms]
[OGL LOG][Proc: 0]global_index_init: 0.011 [ms]
[OGL LOG][Proc: 0]update_host_matrix_data: 33.508 [ms]
[OGL LOG][Proc: 0]gather_global_matrix: 0 [ms]
[OGL LOG][Proc: 0]generate_distributed_matrix: 24.838 [ms]
[OGL LOG][Proc: 0]init_precond: 0.024 [ms]
[OGL LOG][Proc: 0]generate_solver: 0.001 [ms]
[OGL LOG][Proc: 0]solve: 1014.51 [ms]
[OGL LOG][Proc: 0]copy_x_back: 4.003 [ms]
[OGL LOG][lduLduBase.H:380] 
Statistics:
	Time per iteration: 699 [mu s]
	Time per iteration and DOF: 0.087375 [ns]
	Retrieve results bandwith 1.998000 [GByte/s]
nonecudaGKOCG:  Solving for p, Initial residual = 0.021531, Final residual = 7.75417e-05, No Iterations 1451
linear solve p 1091262
time step continuity errors : sum local = 5.0977e-10, global = -2.25044e-22, cumulative = 5.38586e-22
[OGL LOG][Proc: 0]global_index_init: 0.017 [ms]
[OGL LOG][Proc: 0]global_index_init: 0.009 [ms]
[OGL LOG][Proc: 0]update_host_matrix_data: 34.735 [ms]
[OGL LOG][Proc: 0]gather_global_matrix: 0 [ms]
[OGL LOG][Proc: 0]generate_distributed_matrix: 20.931 [ms]
[OGL LOG][Proc: 0]init_precond: 0.023 [ms]
[OGL LOG][Proc: 0]generate_solver: 0.001 [ms]
[OGL LOG][Proc: 0]solve: 985.688 [ms]
[OGL LOG][Proc: 0]copy_x_back: 3.921 [ms]
[OGL LOG][lduLduBase.H:380] 
Statistics:
	Time per iteration: 679 [mu s]
	Time per iteration and DOF: 0.084875 [ns]
	Retrieve results bandwith 2.040000 [GByte/s]
nonecudaGKOCG:  Solving for p, Initial residual = 0.0190424, Final residual = 6.0747e-05, No Iterations 1451
linear solve p 1057076
time step continuity errors : sum local = 4.00192e-10, global = -5.50797e-23, cumulative = 4.83506e-22
ExecutionTime = 64.93 s  ClockTime = 66 s

Time = 0.00045

Courant Number mean: 0.00478567 max: 0.0920366
DILUPBiCGStab:  Solving for Ux, Initial residual = 0.0193077, Final residual = 1.71863e-06, No Iterations 5
DILUPBiCGStab:  Solving for Uy, Initial residual = 0.0293945, Final residual = 1.59194e-06, No Iterations 5
DILUPBiCGStab:  Solving for Uz, Initial residual = 0.0513663, Final residual = 1.78899e-06, No Iterations 5
linear solve U 1570231
[OGL LOG][Proc: 0]global_index_init: 0.02 [ms]
[OGL LOG][Proc: 0]global_index_init: 0.01 [ms]
[OGL LOG][Proc: 0]update_host_matrix_data: 34.129 [ms]
[OGL LOG][Proc: 0]gather_global_matrix: 0 [ms]
[OGL LOG][Proc: 0]generate_distributed_matrix: 22.07 [ms]
[OGL LOG][Proc: 0]init_precond: 0.023 [ms]
[OGL LOG][Proc: 0]generate_solver: 0.001 [ms]
[OGL LOG][Proc: 0]solve: 1006.35 [ms]
[OGL LOG][Proc: 0]copy_x_back: 4.226 [ms]
[OGL LOG][lduLduBase.H:380] 
Statistics:
	Time per iteration: 693 [mu s]
	Time per iteration and DOF: 0.086625 [ns]
	Retrieve results bandwith 1.893000 [GByte/s]
nonecudaGKOCG:  Solving for p, Initial residual = 0.0178986, Final residual = 6.2496e-05, No Iterations 1451
linear solve p 1080112
time step continuity errors : sum local = 4.11896e-10, global = -1.53444e-22, cumulative = 3.30063e-22
[OGL LOG][Proc: 0]global_index_init: 0.017 [ms]
[OGL LOG][Proc: 0]global_index_init: 0.009 [ms]
[OGL LOG][Proc: 0]update_host_matrix_data: 33.887 [ms]
[OGL LOG][Proc: 0]gather_global_matrix: 0 [ms]
[OGL LOG][Proc: 0]generate_distributed_matrix: 19.928 [ms]
[OGL LOG][Proc: 0]init_precond: 0.023 [ms]
[OGL LOG][Proc: 0]generate_solver: 0.001 [ms]
[OGL LOG][Proc: 0]solve: 985.119 [ms]
[OGL LOG][Proc: 0]copy_x_back: 3.966 [ms]
[OGL LOG][lduLduBase.H:380] 
Statistics:
	Time per iteration: 678 [mu s]
	Time per iteration and DOF: 0.084750 [ns]
	Retrieve results bandwith 2.017000 [GByte/s]
nonecudaGKOCG:  Solving for p, Initial residual = 0.0159385, Final residual = 4.81427e-05, No Iterations 1451
linear solve p 1055433
time step continuity errors : sum local = 3.17748e-10, global = -1.68419e-22, cumulative = 1.61644e-22
ExecutionTime = 69.78 s  ClockTime = 71 s

Time = 0.0005

Courant Number mean: 0.0050429 max: 0.0925024
DILUPBiCGStab:  Solving for Ux, Initial residual = 0.0172236, Final residual = 1.52589e-06, No Iterations 5
DILUPBiCGStab:  Solving for Uy, Initial residual = 0.0259481, Final residual = 1.35632e-06, No Iterations 5
DILUPBiCGStab:  Solving for Uz, Initial residual = 0.0462427, Final residual = 1.4333e-06, No Iterations 5
linear solve U 1576795
[OGL LOG][Proc: 0]global_index_init: 0.015 [ms]
[OGL LOG][Proc: 0]global_index_init: 0.01 [ms]
[OGL LOG][Proc: 0]update_host_matrix_data: 33.999 [ms]
[OGL LOG][Proc: 0]gather_global_matrix: 0 [ms]
[OGL LOG][Proc: 0]generate_distributed_matrix: 22.757 [ms]
[OGL LOG][Proc: 0]init_precond: 0.023 [ms]
[OGL LOG][Proc: 0]generate_solver: 0.001 [ms]
[OGL LOG][Proc: 0]solve: 1010.01 [ms]
[OGL LOG][Proc: 0]copy_x_back: 4.148 [ms]
[OGL LOG][lduLduBase.H:380] 
Statistics:
	Time per iteration: 696 [mu s]
	Time per iteration and DOF: 0.087000 [ns]
	Retrieve results bandwith 1.928000 [GByte/s]
nonecudaGKOCG:  Solving for p, Initial residual = 0.0149569, Final residual = 5.45691e-05, No Iterations 1451
linear solve p 1083800
time step continuity errors : sum local = 3.60377e-10, global = -2.21094e-22, cumulative = -5.94503e-23
[OGL LOG][Proc: 0]global_index_init: 0.017 [ms]
[OGL LOG][Proc: 0]global_index_init: 0.01 [ms]
[OGL LOG][Proc: 0]update_host_matrix_data: 33.944 [ms]
[OGL LOG][Proc: 0]gather_global_matrix: 0 [ms]
[OGL LOG][Proc: 0]generate_distributed_matrix: 21.433 [ms]
[OGL LOG][Proc: 0]init_precond: 0.023 [ms]
[OGL LOG][Proc: 0]generate_solver: 0.001 [ms]
[OGL LOG][Proc: 0]solve: 955.624 [ms]
[OGL LOG][Proc: 0]copy_x_back: 4.045 [ms]
[OGL LOG][lduLduBase.H:380] 
Statistics:
	Time per iteration: 686 [mu s]
	Time per iteration and DOF: 0.085750 [ns]
	Retrieve results bandwith 1.977000 [GByte/s]
nonecudaGKOCG:  Solving for p, Initial residual = 0.0134006, Final residual = 9.64502e-05, No Iterations 1393
linear solve p 1027923
time step continuity errors : sum local = 6.37843e-10, global = -4.87179e-22, cumulative = -5.46629e-22
ExecutionTime = 74.62 s  ClockTime = 76 s

Time = 0.00055

Courant Number mean: 0.00528112 max: 0.0928897
DILUPBiCGStab:  Solving for Ux, Initial residual = 0.0155465, Final residual = 1.35748e-06, No Iterations 5
DILUPBiCGStab:  Solving for Uy, Initial residual = 0.0232129, Final residual = 1.18241e-06, No Iterations 5
DILUPBiCGStab:  Solving for Uz, Initial residual = 0.0418743, Final residual = 1.18609e-06, No Iterations 5
linear solve U 1572430
[OGL LOG][Proc: 0]global_index_init: 0.018 [ms]
[OGL LOG][Proc: 0]global_index_init: 0.01 [ms]
[OGL LOG][Proc: 0]update_host_matrix_data: 33.25 [ms]
[OGL LOG][Proc: 0]gather_global_matrix: 0 [ms]
[OGL LOG][Proc: 0]generate_distributed_matrix: 24.548 [ms]
[OGL LOG][Proc: 0]init_precond: 0.033 [ms]
[OGL LOG][Proc: 0]generate_solver: 0.002 [ms]
[OGL LOG][Proc: 0]solve: 991.908 [ms]
[OGL LOG][Proc: 0]copy_x_back: 4.152 [ms]
[OGL LOG][lduLduBase.H:380] 
Statistics:
	Time per iteration: 693 [mu s]
	Time per iteration and DOF: 0.086625 [ns]
	Retrieve results bandwith 1.926000 [GByte/s]
nonecudaGKOCG:  Solving for p, Initial residual = 0.0130461, Final residual = 6.20535e-05, No Iterations 1431
linear solve p 1067142
time step continuity errors : sum local = 4.10613e-10, global = 6.88991e-23, cumulative = -4.7773e-22
[OGL LOG][Proc: 0]global_index_init: 0.016 [ms]
[OGL LOG][Proc: 0]global_index_init: 0.009 [ms]
[OGL LOG][Proc: 0]update_host_matrix_data: 34.341 [ms]
[OGL LOG][Proc: 0]gather_global_matrix: 0 [ms]
[OGL LOG][Proc: 0]generate_distributed_matrix: 21.047 [ms]
[OGL LOG][Proc: 0]init_precond: 0.022 [ms]
[OGL LOG][Proc: 0]generate_solver: 0.001 [ms]
[OGL LOG][Proc: 0]solve: 972.985 [ms]
[OGL LOG][Proc: 0]copy_x_back: 3.936 [ms]
[OGL LOG][lduLduBase.H:380] 
Statistics:
	Time per iteration: 682 [mu s]
	Time per iteration and DOF: 0.085250 [ns]
	Retrieve results bandwith 2.032000 [GByte/s]
nonecudaGKOCG:  Solving for p, Initial residual = 0.0116999, Final residual = 6.23777e-05, No Iterations 1426
linear solve p 1045098
time step continuity errors : sum local = 4.13184e-10, global = -1.23492e-22, cumulative = -6.01222e-22
ExecutionTime = 79.45 s  ClockTime = 81 s

Time = 0.0006

Courant Number mean: 0.00550386 max: 0.0932185
DILUPBiCGStab:  Solving for Ux, Initial residual = 0.0141662, Final residual = 1.21341e-06, No Iterations 5
DILUPBiCGStab:  Solving for Uy, Initial residual = 0.0209901, Final residual = 1.04436e-06, No Iterations 5
DILUPBiCGStab:  Solving for Uz, Initial residual = 0.0383912, Final residual = 9.91419e-07, No Iterations 5
linear solve U 1576857
[OGL LOG][Proc: 0]global_index_init: 0.018 [ms]
[OGL LOG][Proc: 0]global_index_init: 0.01 [ms]
[OGL LOG][Proc: 0]update_host_matrix_data: 34.249 [ms]
[OGL LOG][Proc: 0]gather_global_matrix: 0 [ms]
[OGL LOG][Proc: 0]generate_distributed_matrix: 26.536 [ms]
[OGL LOG][Proc: 0]init_precond: 0.023 [ms]
[OGL LOG][Proc: 0]generate_solver: 0.001 [ms]
[OGL LOG][Proc: 0]solve: 991.609 [ms]
[OGL LOG][Proc: 0]copy_x_back: 4.039 [ms]
[OGL LOG][lduLduBase.H:380] 
Statistics:
	Time per iteration: 695 [mu s]
	Time per iteration and DOF: 0.086875 [ns]
	Retrieve results bandwith 1.980000 [GByte/s]
nonecudaGKOCG:  Solving for p, Initial residual = 0.011465, Final residual = 6.74497e-05, No Iterations 1426
linear solve p 1068883
time step continuity errors : sum local = 4.47061e-10, global = 2.5125e-23, cumulative = -5.76097e-22
[OGL LOG][Proc: 0]global_index_init: 0.019 [ms]
[OGL LOG][Proc: 0]global_index_init: 0.01 [ms]
[OGL LOG][Proc: 0]update_host_matrix_data: 33.557 [ms]
[OGL LOG][Proc: 0]gather_global_matrix: 0 [ms]
[OGL LOG][Proc: 0]generate_distributed_matrix: 20.028 [ms]
[OGL LOG][Proc: 0]init_precond: 0.033 [ms]
[OGL LOG][Proc: 0]generate_solver: 0.002 [ms]
[OGL LOG][Proc: 0]solve: 971.707 [ms]
[OGL LOG][Proc: 0]copy_x_back: 3.911 [ms]
[OGL LOG][lduLduBase.H:380] 
Statistics:
	Time per iteration: 681 [mu s]
	Time per iteration and DOF: 0.085125 [ns]
	Retrieve results bandwith 2.045000 [GByte/s]
nonecudaGKOCG:  Solving for p, Initial residual = 0.0103222, Final residual = 5.18245e-05, No Iterations 1426
linear solve p 1042145
time step continuity errors : sum local = 3.43816e-10, global = 1.78865e-22, cumulative = -3.97232e-22
ExecutionTime = 84.28 s  ClockTime = 86 s

Time = 0.00065

Courant Number mean: 0.00571305 max: 0.093502
DILUPBiCGStab:  Solving for Ux, Initial residual = 0.0130115, Final residual = 1.08862e-06, No Iterations 5
DILUPBiCGStab:  Solving for Uy, Initial residual = 0.0191478, Final residual = 9.33336e-07, No Iterations 5
DILUPBiCGStab:  Solving for Uz, Initial residual = 0.0353648, Final residual = 8.48475e-07, No Iterations 5
linear solve U 1572521
[OGL LOG][Proc: 0]global_index_init: 0.02 [ms]
[OGL LOG][Proc: 0]global_index_init: 0.01 [ms]
[OGL LOG][Proc: 0]update_host_matrix_data: 33.866 [ms]
[OGL LOG][Proc: 0]gather_global_matrix: 0 [ms]
[OGL LOG][Proc: 0]generate_distributed_matrix: 24.704 [ms]
[OGL LOG][Proc: 0]init_precond: 0.023 [ms]
[OGL LOG][Proc: 0]generate_solver: 0.001 [ms]
[OGL LOG][Proc: 0]solve: 995.087 [ms]
[OGL LOG][Proc: 0]copy_x_back: 4.296 [ms]
[OGL LOG][lduLduBase.H:380] 
Statistics:
	Time per iteration: 697 [mu s]
	Time per iteration and DOF: 0.087125 [ns]
	Retrieve results bandwith 1.862000 [GByte/s]
nonecudaGKOCG:  Solving for p, Initial residual = 0.0101605, Final residual = 5.77542e-05, No Iterations 1426
linear solve p 1069480
time step continuity errors : sum local = 3.83356e-10, global = -1.48645e-22, cumulative = -5.45877e-22
[OGL LOG][Proc: 0]global_index_init: 0.016 [ms]
[OGL LOG][Proc: 0]global_index_init: 0.01 [ms]
[OGL LOG][Proc: 0]update_host_matrix_data: 34.598 [ms]
[OGL LOG][Proc: 0]gather_global_matrix: 0 [ms]
[OGL LOG][Proc: 0]generate_distributed_matrix: 21.439 [ms]
[OGL LOG][Proc: 0]init_precond: 0.022 [ms]
[OGL LOG][Proc: 0]generate_solver: 0.001 [ms]
[OGL LOG][Proc: 0]solve: 971.34 [ms]
[OGL LOG][Proc: 0]copy_x_back: 4.153 [ms]
[OGL LOG][lduLduBase.H:380] 
Statistics:
	Time per iteration: 681 [mu s]
	Time per iteration and DOF: 0.085125 [ns]
	Retrieve results bandwith 1.926000 [GByte/s]
nonecudaGKOCG:  Solving for p, Initial residual = 0.00917064, Final residual = 4.73318e-05, No Iterations 1426
linear solve p 1043638
time step continuity errors : sum local = 3.14429e-10, global = -8.2587e-23, cumulative = -6.28464e-22
ExecutionTime = 89.1 s  ClockTime = 90 s

Time = 0.0007

Courant Number mean: 0.00591027 max: 0.0937498
DILUPBiCGStab:  Solving for Ux, Initial residual = 0.0120287, Final residual = 9.81352e-07, No Iterations 5
DILUPBiCGStab:  Solving for Uy, Initial residual = 0.0175963, Final residual = 8.41346e-07, No Iterations 5
DILUPBiCGStab:  Solving for Uz, Initial residual = 0.0327873, Final residual = 7.36678e-07, No Iterations 5
linear solve U 1578082
[OGL LOG][Proc: 0]global_index_init: 0.02 [ms]
[OGL LOG][Proc: 0]global_index_init: 0.01 [ms]
[OGL LOG][Proc: 0]update_host_matrix_data: 34.257 [ms]
[OGL LOG][Proc: 0]gather_global_matrix: 0 [ms]
[OGL LOG][Proc: 0]generate_distributed_matrix: 24.641 [ms]
[OGL LOG][Proc: 0]init_precond: 0.023 [ms]
[OGL LOG][Proc: 0]generate_solver: 0.001 [ms]
[OGL LOG][Proc: 0]solve: 996.068 [ms]
[OGL LOG][Proc: 0]copy_x_back: 4.033 [ms]
[OGL LOG][lduLduBase.H:380] 
Statistics:
	Time per iteration: 698 [mu s]
	Time per iteration and DOF: 0.087250 [ns]
	Retrieve results bandwith 1.983000 [GByte/s]
nonecudaGKOCG:  Solving for p, Initial residual = 0.00910653, Final residual = 5.09527e-05, No Iterations 1426
linear solve p 1072055
time step continuity errors : sum local = 3.38659e-10, global = -1.05937e-22, cumulative = -7.34401e-22
[OGL LOG][Proc: 0]global_index_init: 0.017 [ms]
[OGL LOG][Proc: 0]global_index_init: 0.009 [ms]
[OGL LOG][Proc: 0]update_host_matrix_data: 34.158 [ms]
[OGL LOG][Proc: 0]gather_global_matrix: 0 [ms]
[OGL LOG][Proc: 0]generate_distributed_matrix: 20.587 [ms]
[OGL LOG][Proc: 0]init_precond: 0.023 [ms]
[OGL LOG][Proc: 0]generate_solver: 0.001 [ms]
[OGL LOG][Proc: 0]solve: 970.079 [ms]
[OGL LOG][Proc: 0]copy_x_back: 3.917 [ms]
[OGL LOG][lduLduBase.H:380] 
Statistics:
	Time per iteration: 680 [mu s]
	Time per iteration and DOF: 0.085000 [ns]
	Retrieve results bandwith 2.042000 [GByte/s]
nonecudaGKOCG:  Solving for p, Initial residual = 0.00822472, Final residual = 4.05473e-05, No Iterations 1426
linear solve p 1041124
time step continuity errors : sum local = 2.69692e-10, global = -3.16163e-22, cumulative = -1.05056e-21
ExecutionTime = 93.95 s  ClockTime = 95 s

Time = 0.00075

Courant Number mean: 0.00609756 max: 0.0939687
DILUPBiCGStab:  Solving for Ux, Initial residual = 0.011182, Final residual = 8.88925e-07, No Iterations 5
DILUPBiCGStab:  Solving for Uy, Initial residual = 0.0162718, Final residual = 7.6408e-07, No Iterations 5
DILUPBiCGStab:  Solving for Uz, Initial residual = 0.0305533, Final residual = 6.47331e-07, No Iterations 5
linear solve U 1573062
[OGL LOG][Proc: 0]global_index_init: 0.019 [ms]
[OGL LOG][Proc: 0]global_index_init: 0.009 [ms]
[OGL LOG][Proc: 0]update_host_matrix_data: 34.237 [ms]
[OGL LOG][Proc: 0]gather_global_matrix: 0 [ms]
[OGL LOG][Proc: 0]generate_distributed_matrix: 24.719 [ms]
[OGL LOG][Proc: 0]init_precond: 0.024 [ms]
[OGL LOG][Proc: 0]generate_solver: 0.001 [ms]
[OGL LOG][Proc: 0]solve: 988.921 [ms]
[OGL LOG][Proc: 0]copy_x_back: 3.943 [ms]
[OGL LOG][lduLduBase.H:380] 
Statistics:
	Time per iteration: 693 [mu s]
	Time per iteration and DOF: 0.086625 [ns]
	Retrieve results bandwith 2.028000 [GByte/s]
nonecudaGKOCG:  Solving for p, Initial residual = 0.00822485, Final residual = 4.46092e-05, No Iterations 1426
linear solve p 1063255
time step continuity errors : sum local = 2.96854e-10, global = -4.75682e-23, cumulative = -1.09813e-21
[OGL LOG][Proc: 0]global_index_init: 0.017 [ms]
[OGL LOG][Proc: 0]global_index_init: 0.009 [ms]
[OGL LOG][Proc: 0]update_host_matrix_data: 34.057 [ms]
[OGL LOG][Proc: 0]gather_global_matrix: 0 [ms]
[OGL LOG][Proc: 0]generate_distributed_matrix: 21.74 [ms]
[OGL LOG][Proc: 0]init_precond: 0.024 [ms]
[OGL LOG][Proc: 0]generate_solver: 0.001 [ms]
[OGL LOG][Proc: 0]solve: 935.688 [ms]
[OGL LOG][Proc: 0]copy_x_back: 4.165 [ms]
[OGL LOG][lduLduBase.H:380] 
Statistics:
	Time per iteration: 683 [mu s]
	Time per iteration and DOF: 0.085375 [ns]
	Retrieve results bandwith 1.920000 [GByte/s]
nonecudaGKOCG:  Solving for p, Initial residual = 0.00743793, Final residual = 9.54993e-05, No Iterations 1369
linear solve p 1008850
time step continuity errors : sum local = 6.3597e-10, global = -2.19373e-22, cumulative = -1.31751e-21
ExecutionTime = 98.73 s  ClockTime = 100 s

Time = 0.0008

Courant Number mean: 0.00627532 max: 0.094164
DILUPBiCGStab:  Solving for Ux, Initial residual = 0.0104455, Final residual = 8.08994e-07, No Iterations 5
DILUPBiCGStab:  Solving for Uy, Initial residual = 0.0151282, Final residual = 6.98199e-07, No Iterations 5
DILUPBiCGStab:  Solving for Uz, Initial residual = 0.028568, Final residual = 5.79677e-07, No Iterations 5
linear solve U 1581003
[OGL LOG][Proc: 0]global_index_init: 0.016 [ms]
[OGL LOG][Proc: 0]global_index_init: 0.01 [ms]
[OGL LOG][Proc: 0]update_host_matrix_data: 33.295 [ms]
[OGL LOG][Proc: 0]gather_global_matrix: 0 [ms]
[OGL LOG][Proc: 0]generate_distributed_matrix: 22.036 [ms]
[OGL LOG][Proc: 0]init_precond: 0.024 [ms]
[OGL LOG][Proc: 0]generate_solver: 0.001 [ms]
[OGL LOG][Proc: 0]solve: 976.923 [ms]
[OGL LOG][Proc: 0]copy_x_back: 4.271 [ms]
[OGL LOG][lduLduBase.H:380] 
Statistics:
	Time per iteration: 695 [mu s]
	Time per iteration and DOF: 0.086875 [ns]
	Retrieve results bandwith 1.873000 [GByte/s]
nonecudaGKOCG:  Solving for p, Initial residual = 0.00761899, Final residual = 3.58857e-05, No Iterations 1405
linear solve p 1049935
time step continuity errors : sum local = 2.39107e-10, global = 8.35928e-23, cumulative = -1.23391e-21
[OGL LOG][Proc: 0]global_index_init: 0.018 [ms]
[OGL LOG][Proc: 0]global_index_init: 0.01 [ms]
[OGL LOG][Proc: 0]update_host_matrix_data: 34.163 [ms]
[OGL LOG][Proc: 0]gather_global_matrix: 0 [ms]
[OGL LOG][Proc: 0]generate_distributed_matrix: 21.503 [ms]
[OGL LOG][Proc: 0]init_precond: 0.022 [ms]
[OGL LOG][Proc: 0]generate_solver: 0.001 [ms]
[OGL LOG][Proc: 0]solve: 952.877 [ms]
[OGL LOG][Proc: 0]copy_x_back: 4.192 [ms]
[OGL LOG][lduLduBase.H:380] 
Statistics:
	Time per iteration: 680 [mu s]
	Time per iteration and DOF: 0.085000 [ns]
	Retrieve results bandwith 1.908000 [GByte/s]
nonecudaGKOCG:  Solving for p, Initial residual = 0.00686424, Final residual = 3.3104e-05, No Iterations 1401
linear solve p 1025638
time step continuity errors : sum local = 2.20692e-10, global = 9.75609e-23, cumulative = -1.13635e-21
ExecutionTime = 103.53 s  ClockTime = 105 s

Time = 0.00085

Courant Number mean: 0.00644508 max: 0.0943396
DILUPBiCGStab:  Solving for Ux, Initial residual = 0.00979757, Final residual = 7.39546e-07, No Iterations 5
DILUPBiCGStab:  Solving for Uy, Initial residual = 0.0141304, Final residual = 6.41459e-07, No Iterations 5
DILUPBiCGStab:  Solving for Uz, Initial residual = 0.0268362, Final residual = 5.17352e-07, No Iterations 5
linear solve U 1568432
[OGL LOG][Proc: 0]global_index_init: 0.018 [ms]
[...]
[OGL LOG][Proc: 0]global_index_init: 0.036 [ms]
[OGL LOG][Proc: 0]global_index_init: 0.017 [ms]
[OGL LOG][Proc: 0]update_host_matrix_data: 29.807 [ms]
[OGL LOG][Proc: 0]gather_global_matrix: 0 [ms]
[OGL LOG][Proc: 0]generate_distributed_matrix: 27.156 [ms]
[OGL LOG][Proc: 0]init_precond: 0.022 [ms]
[OGL LOG][Proc: 0]generate_solver: 0.001 [ms]
[OGL LOG][Proc: 0]solve: 1856.04 [ms]
[OGL LOG][Proc: 0]copy_x_back: 3.27 [ms]
[OGL LOG][lduLduBase.H:380] 
Statistics:
	Time per iteration: 833 [mu s]
	Time per iteration and DOF: 0.030852 [ns]
	Retrieve results bandwith 2.064000 [GByte/s]
nonecudaGKOCG:  Solving for p, Initial residual = 0.0159141, Final residual = 3.58818e-05, No Iterations 2226
linear solve p 1928660
time step continuity errors : sum local = 1.09128e-10, global = -3.13736e-22, cumulative = -3.82241e-21
ExecutionTime = 103.03 s  ClockTime = 104 s

Time = 0.0004

Courant Number mean: 0.0046517 max: 0.0945522
DILUPBiCGStab:  Solving for Ux, Initial residual = 0.0136229, Final residual = 6.14186e-06, No Iterations 5
DILUPBiCGStab:  Solving for Uy, Initial residual = 0.0213337, Final residual = 6.64171e-06, No Iterations 5
DILUPBiCGStab:  Solving for Uz, Initial residual = 0.0389277, Final residual = 9.09712e-06, No Iterations 5
linear solve U 1331903
[OGL LOG][Proc: 0]global_index_init: 0.03 [ms]
[OGL LOG][Proc: 0]global_index_init: 0.016 [ms]
[OGL LOG][Proc: 0]update_host_matrix_data: 28.57 [ms]
[OGL LOG][Proc: 0]gather_global_matrix: 0 [ms]
[OGL LOG][Proc: 0]generate_distributed_matrix: 21.832 [ms]
[OGL LOG][Proc: 0]init_precond: 0.023 [ms]
[OGL LOG][Proc: 0]generate_solver: 0.001 [ms]
[OGL LOG][Proc: 0]solve: 1868.35 [ms]
[OGL LOG][Proc: 0]copy_x_back: 3.584 [ms]
[OGL LOG][lduLduBase.H:380] 
Statistics:
	Time per iteration: 839 [mu s]
	Time per iteration and DOF: 0.031074 [ns]
	Retrieve results bandwith 1.883000 [GByte/s]
nonecudaGKOCG:  Solving for p, Initial residual = 0.0147629, Final residual = 3.80295e-05, No Iterations 2226
linear solve p 1935140
time step continuity errors : sum local = 1.15675e-10, global = -1.94282e-22, cumulative = -4.01669e-21
[OGL LOG][Proc: 0]global_index_init: 0.031 [ms]
[OGL LOG][Proc: 0]global_index_init: 0.016 [ms]
[OGL LOG][Proc: 0]update_host_matrix_data: 29.515 [ms]
[OGL LOG][Proc: 0]gather_global_matrix: 0 [ms]
[OGL LOG][Proc: 0]generate_distributed_matrix: 23.561 [ms]
[OGL LOG][Proc: 0]init_precond: 0.021 [ms]
[OGL LOG][Proc: 0]generate_solver: 0.001 [ms]
[OGL LOG][Proc: 0]solve: 1846.49 [ms]
[OGL LOG][Proc: 0]copy_x_back: 3.386 [ms]
[OGL LOG][lduLduBase.H:380] 
Statistics:
	Time per iteration: 829 [mu s]
	Time per iteration and DOF: 0.030704 [ns]
	Retrieve results bandwith 1.993000 [GByte/s]
nonecudaGKOCG:  Solving for p, Initial residual = 0.0137516, Final residual = 3.22335e-05, No Iterations 2226
linear solve p 1916789
time step continuity errors : sum local = 9.81194e-11, global = -1.07797e-22, cumulative = -4.12449e-21
ExecutionTime = 109.17 s  ClockTime = 110 s

Time = 0.000433333

Courant Number mean: 0.00483329 max: 0.0947834
DILUPBiCGStab:  Solving for Ux, Initial residual = 0.0125505, Final residual = 5.431e-06, No Iterations 5
DILUPBiCGStab:  Solving for Uy, Initial residual = 0.019478, Final residual = 5.88612e-06, No Iterations 5
DILUPBiCGStab:  Solving for Uz, Initial residual = 0.035911, Final residual = 7.71767e-06, No Iterations 5
linear solve U 1348724
[OGL LOG][Proc: 0]global_index_init: 0.031 [ms]
[OGL LOG][Proc: 0]global_index_init: 0.016 [ms]
[OGL LOG][Proc: 0]update_host_matrix_data: 28.186 [ms]
[OGL LOG][Proc: 0]gather_global_matrix: 0 [ms]
[OGL LOG][Proc: 0]generate_distributed_matrix: 26.71 [ms]
[OGL LOG][Proc: 0]init_precond: 0.023 [ms]
[OGL LOG][Proc: 0]generate_solver: 0.001 [ms]
[OGL LOG][Proc: 0]solve: 1878.15 [ms]
[OGL LOG][Proc: 0]copy_x_back: 3.411 [ms]
[OGL LOG][lduLduBase.H:380] 
Statistics:
	Time per iteration: 843 [mu s]
	Time per iteration and DOF: 0.031222 [ns]
	Retrieve results bandwith 1.978000 [GByte/s]
nonecudaGKOCG:  Solving for p, Initial residual = 0.0129986, Final residual = 3.17267e-05, No Iterations 2226
linear solve p 1949419
time step continuity errors : sum local = 9.65638e-11, global = -4.38763e-23, cumulative = -4.16836e-21
[OGL LOG][Proc: 0]global_index_init: 0.029 [ms]
[OGL LOG][Proc: 0]global_index_init: 0.017 [ms]
[OGL LOG][Proc: 0]update_host_matrix_data: 29.302 [ms]
[OGL LOG][Proc: 0]gather_global_matrix: 0 [ms]
[OGL LOG][Proc: 0]generate_distributed_matrix: 22.949 [ms]
[OGL LOG][Proc: 0]init_precond: 0.021 [ms]
[OGL LOG][Proc: 0]generate_solver: 0.001 [ms]
[OGL LOG][Proc: 0]solve: 1775.6 [ms]
[OGL LOG][Proc: 0]copy_x_back: 3.228 [ms]
[OGL LOG][lduLduBase.H:380] 
Statistics:
	Time per iteration: 830 [mu s]
	Time per iteration and DOF: 0.030741 [ns]
	Retrieve results bandwith 2.091000 [GByte/s]
nonecudaGKOCG:  Solving for p, Initial residual = 0.0121458, Final residual = 9.75045e-05, No Iterations 2137
linear solve p 1843478
time step continuity errors : sum local = 2.96949e-10, global = -1.03854e-22, cumulative = -4.27222e-21
ExecutionTime = 115.27 s  ClockTime = 116 s

Time = 0.000466667

Courant Number mean: 0.00500486 max: 0.0949855
DILUPBiCGStab:  Solving for Ux, Initial residual = 0.0116358, Final residual = 4.85172e-06, No Iterations 5
DILUPBiCGStab:  Solving for Uy, Initial residual = 0.0179133, Final residual = 5.24975e-06, No Iterations 5
DILUPBiCGStab:  Solving for Uz, Initial residual = 0.0332447, Final residual = 6.6703e-06, No Iterations 5
linear solve U 1329791
[OGL LOG][Proc: 0]global_index_init: 0.039 [ms]
[OGL LOG][Proc: 0]global_index_init: 0.018 [ms]
[OGL LOG][Proc: 0]update_host_matrix_data: 28.261 [ms]
[OGL LOG][Proc: 0]gather_global_matrix: 0 [ms]
[OGL LOG][Proc: 0]generate_distributed_matrix: 21.753 [ms]
[OGL LOG][Proc: 0]init_precond: 0.022 [ms]
[OGL LOG][Proc: 0]generate_solver: 0.001 [ms]
[OGL LOG][Proc: 0]solve: 1802.84 [ms]
[OGL LOG][Proc: 0]copy_x_back: 3.67 [ms]
[OGL LOG][lduLduBase.H:380] 
Statistics:
	Time per iteration: 847 [mu s]
	Time per iteration and DOF: 0.031370 [ns]
	Retrieve results bandwith 1.839000 [GByte/s]
nonecudaGKOCG:  Solving for p, Initial residual = 0.0117446, Final residual = 8.39331e-05, No Iterations 2126
linear solve p 1869392
time step continuity errors : sum local = 2.55712e-10, global = -6.48264e-23, cumulative = -4.33704e-21
[OGL LOG][Proc: 0]global_index_init: 0.027 [ms]
[OGL LOG][Proc: 0]global_index_init: 0.017 [ms]
[OGL LOG][Proc: 0]update_host_matrix_data: 29.137 [ms]
[OGL LOG][Proc: 0]gather_global_matrix: 0 [ms]
[OGL LOG][Proc: 0]generate_distributed_matrix: 25.218 [ms]
[OGL LOG][Proc: 0]init_precond: 0.022 [ms]
[OGL LOG][Proc: 0]generate_solver: 0.001 [ms]
[OGL LOG][Proc: 0]solve: 1771.96 [ms]
[OGL LOG][Proc: 0]copy_x_back: 3.138 [ms]
[OGL LOG][lduLduBase.H:380] 
Statistics:
	Time per iteration: 833 [mu s]
	Time per iteration and DOF: 0.030852 [ns]
	Retrieve results bandwith 2.151000 [GByte/s]
nonecudaGKOCG:  Solving for p, Initial residual = 0.0110016, Final residual = 7.70667e-05, No Iterations 2126
linear solve p 1842024
time step continuity errors : sum local = 2.34921e-10, global = -1.13739e-22, cumulative = -4.45078e-21
ExecutionTime = 121.28 s  ClockTime = 122 s

Time = 0.0005

Courant Number mean: 0.00516807 max: 0.0951642
DILUPBiCGStab:  Solving for Ux, Initial residual = 0.0108455, Final residual = 4.373e-06, No Iterations 5
DILUPBiCGStab:  Solving for Uy, Initial residual = 0.0165775, Final residual = 4.73903e-06, No Iterations 5
DILUPBiCGStab:  Solving for Uz, Initial residual = 0.0309251, Final residual = 5.86187e-06, No Iterations 5
linear solve U 1328734
[OGL LOG][Proc: 0]global_index_init: 0.036 [ms]
[OGL LOG][Proc: 0]global_index_init: 0.017 [ms]
[OGL LOG][Proc: 0]update_host_matrix_data: 28.39 [ms]
[OGL LOG][Proc: 0]gather_global_matrix: 0 [ms]
[OGL LOG][Proc: 0]generate_distributed_matrix: 22.195 [ms]
[OGL LOG][Proc: 0]init_precond: 0.022 [ms]
[OGL LOG][Proc: 0]generate_solver: 0.001 [ms]
[OGL LOG][Proc: 0]solve: 1792.09 [ms]
[OGL LOG][Proc: 0]copy_x_back: 3.598 [ms]
[OGL LOG][lduLduBase.H:380] 
Statistics:
	Time per iteration: 842 [mu s]
	Time per iteration and DOF: 0.031185 [ns]
	Retrieve results bandwith 1.876000 [GByte/s]
nonecudaGKOCG:  Solving for p, Initial residual = 0.0107916, Final residual = 6.53195e-05, No Iterations 2126
linear solve p 1860437
time step continuity errors : sum local = 1.99163e-10, global = -1.52754e-22, cumulative = -4.60354e-21
[OGL LOG][Proc: 0]global_index_init: 0.033 [ms]
[OGL LOG][Proc: 0]global_index_init: 0.018 [ms]
[OGL LOG][Proc: 0]update_host_matrix_data: 30.651 [ms]
[OGL LOG][Proc: 0]gather_global_matrix: 0 [ms]
[OGL LOG][Proc: 0]generate_distributed_matrix: 22.791 [ms]
[OGL LOG][Proc: 0]init_precond: 0.022 [ms]
[OGL LOG][Proc: 0]generate_solver: 0.001 [ms]
[OGL LOG][Proc: 0]solve: 1774.36 [ms]
[OGL LOG][Proc: 0]copy_x_back: 3.147 [ms]
[OGL LOG][lduLduBase.H:380] 
Statistics:
	Time per iteration: 834 [mu s]
	Time per iteration and DOF: 0.030889 [ns]
	Retrieve results bandwith 2.144000 [GByte/s]
nonecudaGKOCG:  Solving for p, Initial residual = 0.0101343, Final residual = 5.21267e-05, No Iterations 2126
linear solve p 1843922
time step continuity errors : sum local = 1.59011e-10, global = -5.72191e-23, cumulative = -4.66076e-21
ExecutionTime = 127.28 s  ClockTime = 128 s

Time = 0.000533333

Courant Number mean: 0.00532341 max: 0.0953237
DILUPBiCGStab:  Solving for Ux, Initial residual = 0.0101559, Final residual = 3.97501e-06, No Iterations 5
DILUPBiCGStab:  Solving for Uy, Initial residual = 0.0154231, Final residual = 4.31028e-06, No Iterations 5
DILUPBiCGStab:  Solving for Uz, Initial residual = 0.029024, Final residual = 5.22391e-06, No Iterations 5
linear solve U 1329506
[OGL LOG][Proc: 0]global_index_init: 0.024 [ms]
[OGL LOG][Proc: 0]global_index_init: 0.016 [ms]
[OGL LOG][Proc: 0]update_host_matrix_data: 28.775 [ms]
[OGL LOG][Proc: 0]gather_global_matrix: 0 [ms]
[OGL LOG][Proc: 0]generate_distributed_matrix: 21.606 [ms]
[OGL LOG][Proc: 0]init_precond: 0.021 [ms]
[OGL LOG][Proc: 0]generate_solver: 0.001 [ms]
[OGL LOG][Proc: 0]solve: 1793.45 [ms]
[OGL LOG][Proc: 0]copy_x_back: 3.335 [ms]
[OGL LOG][lduLduBase.H:380] 
Statistics:
	Time per iteration: 843 [mu s]
	Time per iteration and DOF: 0.031222 [ns]
	Retrieve results bandwith 2.023000 [GByte/s]
nonecudaGKOCG:  Solving for p, Initial residual = 0.00968144, Final residual = 7.71568e-05, No Iterations 2126
linear solve p 1860605
time step continuity errors : sum local = 2.35371e-10, global = -3.07433e-22, cumulative = -4.96819e-21
[OGL LOG][Proc: 0]global_index_init: 0.03 [ms]
[OGL LOG][Proc: 0]global_index_init: 0.016 [ms]
[OGL LOG][Proc: 0]update_host_matrix_data: 29.237 [ms]
[OGL LOG][Proc: 0]gather_global_matrix: 0 [ms]
[OGL LOG][Proc: 0]generate_distributed_matrix: 22.529 [ms]
[OGL LOG][Proc: 0]init_precond: 0.022 [ms]
[OGL LOG][Proc: 0]generate_solver: 0.001 [ms]
[OGL LOG][Proc: 0]solve: 1772.43 [ms]
[OGL LOG][Proc: 0]copy_x_back: 3.108 [ms]
[OGL LOG][lduLduBase.H:380] 
Statistics:
	Time per iteration: 833 [mu s]
	Time per iteration and DOF: 0.030852 [ns]
	Retrieve results bandwith 2.171000 [GByte/s]
nonecudaGKOCG:  Solving for p, Initial residual = 0.00911537, Final residual = 5.68277e-05, No Iterations 2126
linear solve p 1840015
time step continuity errors : sum local = 1.73435e-10, global = -4.33055e-22, cumulative = -5.40124e-21
ExecutionTime = 133.29 s  ClockTime = 134 s

Time = 0.000566667

Courant Number mean: 0.00547212 max: 0.0954671
DILUPBiCGStab:  Solving for Ux, Initial residual = 0.00954888, Final residual = 3.63986e-06, No Iterations 5
DILUPBiCGStab:  Solving for Uy, Initial residual = 0.0144159, Final residual = 3.95215e-06, No Iterations 5
DILUPBiCGStab:  Solving for Uz, Initial residual = 0.0273356, Final residual = 4.7263e-06, No Iterations 5
linear solve U 1331189
[OGL LOG][Proc: 0]global_index_init: 0.036 [ms]
[OGL LOG][Proc: 0]global_index_init: 0.017 [ms]
[OGL LOG][Proc: 0]update_host_matrix_data: 28.368 [ms]
[OGL LOG][Proc: 0]gather_global_matrix: 0 [ms]
[OGL LOG][Proc: 0]generate_distributed_matrix: 23.134 [ms]
[OGL LOG][Proc: 0]init_precond: 0.022 [ms]
[OGL LOG][Proc: 0]generate_solver: 0.001 [ms]
[OGL LOG][Proc: 0]solve: 1789.32 [ms]
[OGL LOG][Proc: 0]copy_x_back: 3.369 [ms]
[OGL LOG][lduLduBase.H:380] 
Statistics:
	Time per iteration: 841 [mu s]
	Time per iteration and DOF: 0.031148 [ns]
	Retrieve results bandwith 2.003000 [GByte/s]
nonecudaGKOCG:  Solving for p, Initial residual = 0.00897286, Final residual = 8.05364e-05, No Iterations 2126
linear solve p 1857519
time step continuity errors : sum local = 2.45846e-10, global = -1.98502e-22, cumulative = -5.59975e-21
[OGL LOG][Proc: 0]global_index_init: 0.031 [ms]
[OGL LOG][Proc: 0]global_index_init: 0.016 [ms]
[OGL LOG][Proc: 0]update_host_matrix_data: 29.428 [ms]
[OGL LOG][Proc: 0]gather_global_matrix: 0 [ms]
[OGL LOG][Proc: 0]generate_distributed_matrix: 21.352 [ms]
[OGL LOG][Proc: 0]init_precond: 0.031 [ms]
[OGL LOG][Proc: 0]generate_solver: 0.002 [ms]
[OGL LOG][Proc: 0]solve: 1778.16 [ms]
[OGL LOG][Proc: 0]copy_x_back: 3.153 [ms]
[OGL LOG][lduLduBase.H:380] 
Statistics:
	Time per iteration: 836 [mu s]
	Time per iteration and DOF: 0.030963 [ns]
	Retrieve results bandwith 2.140000 [GByte/s]
nonecudaGKOCG:  Solving for p, Initial residual = 0.00845489, Final residual = 6.30608e-05, No Iterations 2126
linear solve p 1847034
time step continuity errors : sum local = 1.92577e-10, global = -1.96441e-22, cumulative = -5.79619e-21
ExecutionTime = 139.28 s  ClockTime = 140 s

Time = 0.0006

Courant Number mean: 0.00561448 max: 0.0955971
DILUPBiCGStab:  Solving for Ux, Initial residual = 0.00900962, Final residual = 3.35586e-06, No Iterations 5
DILUPBiCGStab:  Solving for Uy, Initial residual = 0.0135294, Final residual = 3.6478e-06, No Iterations 5
DILUPBiCGStab:  Solving for Uz, Initial residual = 0.0257049, Final residual = 4.30612e-06, No Iterations 5
linear solve U 1329480
[OGL LOG][Proc: 0]global_index_init: 0.032 [ms]
[OGL LOG][Proc: 0]global_index_init: 0.016 [ms]
[OGL LOG][Proc: 0]update_host_matrix_data: 29.698 [ms]
[OGL LOG][Proc: 0]gather_global_matrix: 0 [ms]
[OGL LOG][Proc: 0]generate_distributed_matrix: 24.604 [ms]
[OGL LOG][Proc: 0]init_precond: 0.022 [ms]
[OGL LOG][Proc: 0]generate_solver: 0.001 [ms]
[OGL LOG][Proc: 0]solve: 1810.38 [ms]
[OGL LOG][Proc: 0]copy_x_back: 3.44 [ms]
[OGL LOG][lduLduBase.H:380] 
Statistics:
	Time per iteration: 851 [mu s]
	Time per iteration and DOF: 0.031519 [ns]
	Retrieve results bandwith 1.962000 [GByte/s]
nonecudaGKOCG:  Solving for p, Initial residual = 0.00829818, Final residual = 9.07077e-05, No Iterations 2126
linear solve p 1881309
time step continuity errors : sum local = 2.77062e-10, global = -2.82535e-22, cumulative = -6.07872e-21
[OGL LOG][Proc: 0]global_index_init: 0.04 [ms]
[OGL LOG][Proc: 0]global_index_init: 0.017 [ms]
[OGL LOG][Proc: 0]update_host_matrix_data: 28.873 [ms]
[OGL LOG][Proc: 0]gather_global_matrix: 0 [ms]
[OGL LOG][Proc: 0]generate_distributed_matrix: 22.061 [ms]
[OGL LOG][Proc: 0]init_precond: 0.022 [ms]
[OGL LOG][Proc: 0]generate_solver: 0.001 [ms]
[OGL LOG][Proc: 0]solve: 1439.51 [ms]
[OGL LOG][Proc: 0]copy_x_back: 3.226 [ms]
[OGL LOG][lduLduBase.H:380] 
Statistics:
	Time per iteration: 846 [mu s]
	Time per iteration and DOF: 0.031333 [ns]
	Retrieve results bandwith 2.092000 [GByte/s]
nonecudaGKOCG:  Solving for p, Initial residual = 0.0078333, Final residual = 9.87335e-05, No Iterations 1701
linear solve p 1505762
time step continuity errors : sum local = 3.03384e-10, global = -2.4896e-22, cumulative = -6.32768e-21
ExecutionTime = 144.88 s  ClockTime = 146 s

Time = 0.000633333

Courant Number mean: 0.00575138 max: 0.0957155
DILUPBiCGStab:  Solving for Ux, Initial residual = 0.00852716, Final residual = 3.11254e-06, No Iterations 5
DILUPBiCGStab:  Solving for Uy, Initial residual = 0.0127439, Final residual = 3.38856e-06, No Iterations 5
DILUPBiCGStab:  Solving for Uz, Initial residual = 0.0244404, Final residual = 3.99296e-06, No Iterations 5
linear solve U 1330379
[OGL LOG][Proc: 0]global_index_init: 0.035 [ms]
[OGL LOG][Proc: 0]global_index_init: 0.017 [ms]
[OGL LOG][Proc: 0]update_host_matrix_data: 29.006 [ms]
[OGL LOG][Proc: 0]gather_global_matrix: 0 [ms]
[OGL LOG][Proc: 0]generate_distributed_matrix: 23.795 [ms]
[OGL LOG][Proc: 0]init_precond: 0.021 [ms]
[OGL LOG][Proc: 0]generate_solver: 0.001 [ms]
[OGL LOG][Proc: 0]solve: 1174.12 [ms]
[OGL LOG][Proc: 0]copy_x_back: 3.617 [ms]
[OGL LOG][lduLduBase.H:380] 
Statistics:
	Time per iteration: 862 [mu s]
	Time per iteration and DOF: 0.031926 [ns]
	Retrieve results bandwith 1.866000 [GByte/s]
nonecudaGKOCG:  Solving for p, Initial residual = 0.00774955, Final residual = 2.10166e-05, No Iterations 1361
linear solve p 1243320
time step continuity errors : sum local = 6.67742e-11, global = -1.42071e-22, cumulative = -6.46975e-21
[OGL LOG][Proc: 0]global_index_init: 0.034 [ms]
[OGL LOG][Proc: 0]global_index_init: 0.018 [ms]
[OGL LOG][Proc: 0]update_host_matrix_data: 29.46 [ms]
[OGL LOG][Proc: 0]gather_global_matrix: 0 [ms]
[OGL LOG][Proc: 0]generate_distributed_matrix: 21.331 [ms]
[OGL LOG][Proc: 0]init_precond: 0.022 [ms]
[OGL LOG][Proc: 0]generate_solver: 0.001 [ms]
[OGL LOG][Proc: 0]solve: 970.292 [ms]
[OGL LOG][Proc: 0]copy_x_back: 3.128 [ms]
[OGL LOG][lduLduBase.H:380] 
Statistics:
	Time per iteration: 854 [mu s]
	Time per iteration and DOF: 0.031630 [ns]
	Retrieve results bandwith 2.157000 [GByte/s]
nonecudaGKOCG:  Solving for p, Initial residual = 0.00727455, Final residual = 1.34712e-05, No Iterations 1135
linear solve p 1038630
time step continuity errors : sum local = 4.36135e-11, global = -8.60969e-23, cumulative = -6.55585e-21
ExecutionTime = 149.46 s  ClockTime = 151 s

Time = 0.000666667

Courant Number mean: 0.00588313 max: 0.095824
DILUPBiCGStab:  Solving for Ux, Initial residual = 0.00809412, Final residual = 2.90211e-06, No Iterations 5
DILUPBiCGStab:  Solving for Uy, Initial residual = 0.0120412, Final residual = 3.16643e-06, No Iterations 5
DILUPBiCGStab:  Solving for Uz, Initial residual = 0.0232633, Final residual = 3.74601e-06, No Iterations 5
linear solve U 1327971
[OGL LOG][Proc: 0]global_index_init: 0.025 [ms]
[OGL LOG][Proc: 0]global_index_init: 0.016 [ms]
[OGL LOG][Proc: 0]update_host_matrix_data: 29.691 [ms]
[OGL LOG][Proc: 0]gather_global_matrix: 0 [ms]
[OGL LOG][Proc: 0]generate_distributed_matrix: 24.648 [ms]
[OGL LOG][Proc: 0]init_precond: 0.023 [ms]
[OGL LOG][Proc: 0]generate_solver: 0.001 [ms]
[OGL LOG][Proc: 0]solve: 833.339 [ms]
[OGL LOG][Proc: 0]copy_x_back: 3.687 [ms]
[OGL LOG][lduLduBase.H:380] 
Statistics:
	Time per iteration: 880 [mu s]
	Time per iteration and DOF: 0.032593 [ns]
	Retrieve results bandwith 1.830000 [GByte/s]
nonecudaGKOCG:  Solving for p, Initial residual = 0.00702554, Final residual = 2.18975e-05, No Iterations 946
linear solve p 904100
time step continuity errors : sum local = 6.705e-11, global = -1.37762e-22, cumulative = -6.69361e-21
[OGL LOG][Proc: 0]global_index_init: 0.028 [ms]
[OGL LOG][Proc: 0]global_index_init: 0.018 [ms]
[OGL LOG][Proc: 0]update_host_matrix_data: 29.067 [ms]
[OGL LOG][Proc: 0]gather_global_matrix: 0 [ms]
[OGL LOG][Proc: 0]generate_distributed_matrix: 24.787 [ms]
[OGL LOG][Proc: 0]init_precond: 0.022 [ms]
[OGL LOG][Proc: 0]generate_solver: 0.001 [ms]
[OGL LOG][Proc: 0]solve: 745.777 [ms]
[OGL LOG][Proc: 0]copy_x_back: 3.156 [ms]
[OGL LOG][lduLduBase.H:380] 
Statistics:
	Time per iteration: 875 [mu s]
	Time per iteration and DOF: 0.032407 [ns]
	Retrieve results bandwith 2.138000 [GByte/s]
nonecudaGKOCG:  Solving for p, Initial residual = 0.00660942, Final residual = 7.84503e-05, No Iterations 852
linear solve p 815615
time step continuity errors : sum local = 2.41536e-10, global = -2.20921e-22, cumulative = -6.91453e-21
ExecutionTime = 153.48 s  ClockTime = 155 s

End

Finalising parallel run
================================================================================
