hash: 09742b21f01ecefb927785310bacea2d
/*---------------------------------------------------------------------------*\
| =========                 |                                                 |
| \\      /  F ield         | OpenFOAM: The Open Source CFD Toolbox           |
|  \\    /   O peration     | Version:  2112                                  |
|   \\  /    A nd           | Website:  www.openfoam.com                      |
|    \\/     M anipulation  |                                                 |
\*---------------------------------------------------------------------------*/
Build  : d44c8318f0-20220111 OPENFOAM=2112 version=v2112
Arch   : "LSB;label=32;scalar=64"
Exec   : icoFoam -parallel
Date   : Jun 27 2022
Time   : 09:57:02
Host   : hkn0813.localdomain
PID    : 1081043
I/O    : uncollated
Case   : /hkfs/work/workspace/scratch/eq4036-lidDrivenCavity/simple/mesh/300/matrix_solver/CG_NoPrecond_CUDA/mpiRank_gko/3/base
nProcs : 3
Hosts  :
(
    (hkn0813.localdomain 3)
)
Pstream initialized with:
    floatTransfer      : 0
    nProcsSimpleSum    : 0
    commsType          : nonBlocking
    polling iterations : 0
trapFpe: Floating point exception trapping enabled (FOAM_SIGFPE).
fileModificationChecking : Monitoring run-time modified files using timeStampMaster (fileModificationSkew 5, maxFileModificationPolls 20)
allowSystemOperations : Allowing user-supplied system call operations

// * * * * * * * * * * * * * * * * * * * * * * * * * * * * * * * * * * * * * //
Create time

Create mesh for time = 0


PISO: Operating solver in PISO mode

Reading transportProperties

Reading field p

Reading field U

Reading/calculating face flux field phi


Starting time loop

Time = 3.33333e-05

Courant Number mean: 0 max: 0
DILUPBiCGStab:  Solving for Ux, Initial residual = 1, Final residual = 0.000491339, No Iterations 5
DILUPBiCGStab:  Solving for Uy:  solution singularity
DILUPBiCGStab:  Solving for Uz:  solution singularity
linear solve U 5967835
[OGL LOG][Proc: 0]global_index_init: 0.024 [ms]
[OGL LOG][Proc: 0]global_index_init: 0.001 [ms]
[OGL LOG][Proc: 0]init_host_sparsity_pattern: 376294 [ms]
[OGL LOG][Proc: 0]update_host_matrix_data: 268.685 [ms]
[OGL LOG][Proc: 0]convert_coo_to_csr: 701.729 [ms]
[OGL LOG][lduLduBase.H:153] Initialising OGL
	Version:  484b851
	branch: HEAD 
	Ginkgo version: 1.5.0(develop)
	MPI is GPU aware: 1)
	Forces host buffer based communication: 1
[OGL LOG][Proc: 0]gather_global_matrix: 0.003 [ms]
[OGL LOG][Proc: 0]generate_distributed_matrix: 112.685 [ms]
[OGL LOG][Proc: 0]init_precond: 0.07 [ms]
[OGL LOG][Proc: 0]generate_solver: 0.014 [ms]
[OGL LOG][Proc: 0]solve: 8785.35 [ms]
[OGL LOG][Proc: 0]copy_x_back: 24.917 [ms]
[OGL LOG][lduLduBase.H:380] 
Statistics:
	Time per iteration: 3607 [mu s]
	Time per iteration and DOF: 0.133593 [ns]
	Retrieve results bandwith 2.889000 [GByte/s]
nonecudaGKOCG:  Solving for p, Initial residual = 1, Final residual = 9.92606e-05, No Iterations 2435
linear solve p 752330315
time step continuity errors : sum local = 3.65659e-10, global = -9.4011e-24, cumulative = -9.4011e-24
[OGL LOG][Proc: 0]global_index_init: 0.007 [ms]
[OGL LOG][Proc: 0]global_index_init: 0 [ms]
[OGL LOG][Proc: 0]update_host_matrix_data: 232.341 [ms]
[OGL LOG][Proc: 0]gather_global_matrix: 0 [ms]
[OGL LOG][Proc: 0]generate_distributed_matrix: 108.334 [ms]
[OGL LOG][Proc: 0]init_precond: 0.047 [ms]
[OGL LOG][Proc: 0]generate_solver: 0.002 [ms]
[OGL LOG][Proc: 0]solve: 8443.07 [ms]
[OGL LOG][Proc: 0]copy_x_back: 33.953 [ms]
[OGL LOG][lduLduBase.H:380] 
Statistics:
	Time per iteration: 3480 [mu s]
	Time per iteration and DOF: 0.128889 [ns]
	Retrieve results bandwith 2.120000 [GByte/s]
nonecudaGKOCG:  Solving for p, Initial residual = 0.689125, Final residual = 7.94061e-05, No Iterations 2426
linear solve p 8899959
time step continuity errors : sum local = 4.05186e-10, global = 8.54538e-25, cumulative = -8.54656e-24
ExecutionTime = 805.6 s  ClockTime = 807 s

Time = 6.66667e-05

Courant Number mean: 0.0013224 max: 0.0715364
DILUPBiCGStab:  Solving for Ux, Initial residual = 0.17237, Final residual = 0.00026813, No Iterations 5
DILUPBiCGStab:  Solving for Uy, Initial residual = 0.340769, Final residual = 0.000157741, No Iterations 5
DILUPBiCGStab:  Solving for Uz, Initial residual = 0.996007, Final residual = 0.000823908, No Iterations 5
linear solve U 12026405
[OGL LOG][Proc: 0]global_index_init: 0.006 [ms]
[OGL LOG][Proc: 0]global_index_init: 0 [ms]
[OGL LOG][Proc: 0]update_host_matrix_data: 230.111 [ms]
[OGL LOG][Proc: 0]gather_global_matrix: 0 [ms]
[OGL LOG][Proc: 0]generate_distributed_matrix: 118.82 [ms]
[OGL LOG][Proc: 0]init_precond: 0.034 [ms]
[OGL LOG][Proc: 0]generate_solver: 0.002 [ms]
[OGL LOG][Proc: 0]solve: 8332.69 [ms]
[OGL LOG][Proc: 0]copy_x_back: 34.567 [ms]
[OGL LOG][lduLduBase.H:380] 
Statistics:
	Time per iteration: 3434 [mu s]
	Time per iteration and DOF: 0.127185 [ns]
	Retrieve results bandwith 2.082000 [GByte/s]
nonecudaGKOCG:  Solving for p, Initial residual = 0.593438, Final residual = 4.23296e-05, No Iterations 2426
linear solve p 8779820
time step continuity errors : sum local = 2.1992e-10, global = -1.15086e-22, cumulative = -1.23632e-22
[OGL LOG][Proc: 0]global_index_init: 0.007 [ms]
[OGL LOG][Proc: 0]global_index_init: 0.001 [ms]
[OGL LOG][Proc: 0]update_host_matrix_data: 230.791 [ms]
[OGL LOG][Proc: 0]gather_global_matrix: 0 [ms]
[OGL LOG][Proc: 0]generate_distributed_matrix: 110.413 [ms]
[OGL LOG][Proc: 0]init_precond: 0.034 [ms]
[OGL LOG][Proc: 0]generate_solver: 0.002 [ms]
[OGL LOG][Proc: 0]solve: 8343.17 [ms]
[OGL LOG][Proc: 0]copy_x_back: 33.868 [ms]
[OGL LOG][lduLduBase.H:380] 
Statistics:
	Time per iteration: 3439 [mu s]
	Time per iteration and DOF: 0.127370 [ns]
	Retrieve results bandwith 2.125000 [GByte/s]
nonecudaGKOCG:  Solving for p, Initial residual = 0.513979, Final residual = 3.57264e-05, No Iterations 2426
linear solve p 8791858
time step continuity errors : sum local = 1.89931e-10, global = -1.54494e-23, cumulative = -1.39082e-22
ExecutionTime = 843.53 s  ClockTime = 845 s

Time = 0.0001

Courant Number mean: 0.00202533 max: 0.0848302
DILUPBiCGStab:  Solving for Ux, Initial residual = 0.071695, Final residual = 7.53921e-05, No Iterations 5
DILUPBiCGStab:  Solving for Uy, Initial residual = 0.137117, Final residual = 4.18616e-05, No Iterations 5
DILUPBiCGStab:  Solving for Uz, Initial residual = 0.194663, Final residual = 0.000191121, No Iterations 5
linear solve U 12038062
[OGL LOG][Proc: 0]global_index_init: 0.013 [ms]
[OGL LOG][Proc: 0]global_index_init: 0.001 [ms]
[OGL LOG][Proc: 0]update_host_matrix_data: 231.14 [ms]
[OGL LOG][Proc: 0]gather_global_matrix: 0 [ms]
[OGL LOG][Proc: 0]generate_distributed_matrix: 115.051 [ms]
[OGL LOG][Proc: 0]init_precond: 0.033 [ms]
[OGL LOG][Proc: 0]generate_solver: 0.002 [ms]
[OGL LOG][Proc: 0]solve: 8018.04 [ms]
[OGL LOG][Proc: 0]copy_x_back: 34.857 [ms]
[OGL LOG][lduLduBase.H:380] 
Statistics:
	Time per iteration: 3442 [mu s]
	Time per iteration and DOF: 0.127481 [ns]
	Retrieve results bandwith 2.065000 [GByte/s]
nonecudaGKOCG:  Solving for p, Initial residual = 0.42151, Final residual = 9.75472e-05, No Iterations 2329
linear solve p 8474980
time step continuity errors : sum local = 3.66951e-10, global = -8.42624e-23, cumulative = -2.23344e-22
[OGL LOG][Proc: 0]global_index_init: 0.007 [ms]
[OGL LOG][Proc: 0]global_index_init: 0 [ms]
[OGL LOG][Proc: 0]update_host_matrix_data: 231.441 [ms]
[OGL LOG][Proc: 0]gather_global_matrix: 0 [ms]
[OGL LOG][Proc: 0]generate_distributed_matrix: 109.385 [ms]
[OGL LOG][Proc: 0]init_precond: 0.034 [ms]
[OGL LOG][Proc: 0]generate_solver: 0.002 [ms]
[OGL LOG][Proc: 0]solve: 8011.01 [ms]
[OGL LOG][Proc: 0]copy_x_back: 34.289 [ms]
[OGL LOG][lduLduBase.H:380] 
Statistics:
	Time per iteration: 3444 [mu s]
	Time per iteration and DOF: 0.127556 [ns]
	Retrieve results bandwith 2.099000 [GByte/s]
nonecudaGKOCG:  Solving for p, Initial residual = 0.366051, Final residual = 9.0027e-05, No Iterations 2326
linear solve p 8451351
time step continuity errors : sum local = 3.32153e-10, global = -2.39441e-23, cumulative = -2.47288e-22
ExecutionTime = 880.85 s  ClockTime = 883 s

Time = 0.000133333

Courant Number mean: 0.00251224 max: 0.0887227
DILUPBiCGStab:  Solving for Ux, Initial residual = 0.0466829, Final residual = 2.7498e-05, No Iterations 5
DILUPBiCGStab:  Solving for Uy, Initial residual = 0.086201, Final residual = 1.67115e-05, No Iterations 5
DILUPBiCGStab:  Solving for Uz, Initial residual = 0.113598, Final residual = 7.67406e-05, No Iterations 5
linear solve U 12067073
[OGL LOG][Proc: 0]global_index_init: 0.007 [ms]
[OGL LOG][Proc: 0]global_index_init: 0.001 [ms]
[OGL LOG][Proc: 0]update_host_matrix_data: 231.1 [ms]
[OGL LOG][Proc: 0]gather_global_matrix: 0 [ms]
[OGL LOG][Proc: 0]generate_distributed_matrix: 106.195 [ms]
[OGL LOG][Proc: 0]init_precond: 0.039 [ms]
[OGL LOG][Proc: 0]generate_solver: 0.002 [ms]
[OGL LOG][Proc: 0]solve: 8013.62 [ms]
[OGL LOG][Proc: 0]copy_x_back: 33.986 [ms]
[OGL LOG][lduLduBase.H:380] 
Statistics:
	Time per iteration: 3445 [mu s]
	Time per iteration and DOF: 0.127593 [ns]
	Retrieve results bandwith 2.118000 [GByte/s]
nonecudaGKOCG:  Solving for p, Initial residual = 0.210089, Final residual = 4.08596e-05, No Iterations 2326
linear solve p 8466060
time step continuity errors : sum local = 1.38027e-10, global = -4.68708e-23, cumulative = -2.94159e-22
[OGL LOG][Proc: 0]global_index_init: 0.006 [ms]
[OGL LOG][Proc: 0]global_index_init: 0 [ms]
[OGL LOG][Proc: 0]update_host_matrix_data: 231.117 [ms]
[OGL LOG][Proc: 0]gather_global_matrix: 0 [ms]
[OGL LOG][Proc: 0]generate_distributed_matrix: 118.627 [ms]
[OGL LOG][Proc: 0]init_precond: 0.038 [ms]
[OGL LOG][Proc: 0]generate_solver: 0.002 [ms]
[OGL LOG][Proc: 0]solve: 8078.98 [ms]
[OGL LOG][Proc: 0]copy_x_back: 34.686 [ms]
[OGL LOG][lduLduBase.H:380] 
Statistics:
	Time per iteration: 3473 [mu s]
	Time per iteration and DOF: 0.128630 [ns]
	Retrieve results bandwith 2.075000 [GByte/s]
nonecudaGKOCG:  Solving for p, Initial residual = 0.171, Final residual = 3.42043e-05, No Iterations 2326
linear solve p 8527656
time step continuity errors : sum local = 1.16509e-10, global = -1.27793e-22, cumulative = -4.21952e-22
ExecutionTime = 918.27 s  ClockTime = 920 s

Time = 0.000166667

Courant Number mean: 0.00290363 max: 0.090587
DILUPBiCGStab:  Solving for Ux, Initial residual = 0.0352302, Final residual = 9.61687e-06, No Iterations 5
DILUPBiCGStab:  Solving for Uy, Initial residual = 0.062444, Final residual = 1.14472e-05, No Iterations 5
DILUPBiCGStab:  Solving for Uz, Initial residual = 0.089356, Final residual = 4.25742e-05, No Iterations 5
linear solve U 12060996
[OGL LOG][Proc: 0]global_index_init: 0.007 [ms]
[OGL LOG][Proc: 0]global_index_init: 0.001 [ms]
[OGL LOG][Proc: 0]update_host_matrix_data: 231.508 [ms]
[OGL LOG][Proc: 0]gather_global_matrix: 0 [ms]
[OGL LOG][Proc: 0]generate_distributed_matrix: 105.988 [ms]
[OGL LOG][Proc: 0]init_precond: 0.036 [ms]
[OGL LOG][Proc: 0]generate_solver: 0.002 [ms]
[OGL LOG][Proc: 0]solve: 8037.89 [ms]
[OGL LOG][Proc: 0]copy_x_back: 33.597 [ms]
[OGL LOG][lduLduBase.H:380] 
Statistics:
	Time per iteration: 3455 [mu s]
	Time per iteration and DOF: 0.127963 [ns]
	Retrieve results bandwith 2.143000 [GByte/s]
nonecudaGKOCG:  Solving for p, Initial residual = 0.121249, Final residual = 3.10694e-05, No Iterations 2326
linear solve p 8491367
time step continuity errors : sum local = 9.76798e-11, global = -6.38019e-23, cumulative = -4.85753e-22
[OGL LOG][Proc: 0]global_index_init: 0.007 [ms]
[OGL LOG][Proc: 0]global_index_init: 0.001 [ms]
[OGL LOG][Proc: 0]update_host_matrix_data: 230.786 [ms]
[OGL LOG][Proc: 0]gather_global_matrix: 0 [ms]
[OGL LOG][Proc: 0]generate_distributed_matrix: 118.542 [ms]
[OGL LOG][Proc: 0]init_precond: 0.035 [ms]
[OGL LOG][Proc: 0]generate_solver: 0.002 [ms]
[OGL LOG][Proc: 0]solve: 7698.51 [ms]
[OGL LOG][Proc: 0]copy_x_back: 35.056 [ms]
[OGL LOG][lduLduBase.H:380] 
Statistics:
	Time per iteration: 3447 [mu s]
	Time per iteration and DOF: 0.127667 [ns]
	Retrieve results bandwith 2.053000 [GByte/s]
nonecudaGKOCG:  Solving for p, Initial residual = 0.100344, Final residual = 9.61007e-05, No Iterations 2233
linear solve p 8147449
time step continuity errors : sum local = 3.01728e-10, global = 3.91099e-23, cumulative = -4.46644e-22
ExecutionTime = 955.34 s  ClockTime = 958 s

Time = 0.0002

Courant Number mean: 0.00323663 max: 0.0917321
DILUPBiCGStab:  Solving for Ux, Initial residual = 0.0284974, Final residual = 8.88642e-06, No Iterations 5
DILUPBiCGStab:  Solving for Uy, Initial residual = 0.0490504, Final residual = 5.23071e-06, No Iterations 5
DILUPBiCGStab:  Solving for Uz, Initial residual = 0.075812, Final residual = 2.77079e-05, No Iterations 5
linear solve U 12029370
[OGL LOG][Proc: 0]global_index_init: 0.006 [ms]
[OGL LOG][Proc: 0]global_index_init: 0 [ms]
[OGL LOG][Proc: 0]update_host_matrix_data: 231.579 [ms]
[OGL LOG][Proc: 0]gather_global_matrix: 0 [ms]
[OGL LOG][Proc: 0]generate_distributed_matrix: 108.276 [ms]
[OGL LOG][Proc: 0]init_precond: 0.037 [ms]
[OGL LOG][Proc: 0]generate_solver: 0.002 [ms]
[OGL LOG][Proc: 0]solve: 7686.03 [ms]
[OGL LOG][Proc: 0]copy_x_back: 33.914 [ms]
[OGL LOG][lduLduBase.H:380] 
Statistics:
	Time per iteration: 3452 [mu s]
	Time per iteration and DOF: 0.127852 [ns]
	Retrieve results bandwith 2.123000 [GByte/s]
nonecudaGKOCG:  Solving for p, Initial residual = 0.0716644, Final residual = 8.6716e-05, No Iterations 2226
linear solve p 8130268
time step continuity errors : sum local = 2.6744e-10, global = -1.13467e-22, cumulative = -5.60111e-22
[OGL LOG][Proc: 0]global_index_init: 0.007 [ms]
[OGL LOG][Proc: 0]global_index_init: 0.001 [ms]
[OGL LOG][Proc: 0]update_host_matrix_data: 230.743 [ms]
[OGL LOG][Proc: 0]gather_global_matrix: 0 [ms]
[OGL LOG][Proc: 0]generate_distributed_matrix: 114.896 [ms]
[OGL LOG][Proc: 0]init_precond: 0.034 [ms]
[OGL LOG][Proc: 0]generate_solver: 0.002 [ms]
[OGL LOG][Proc: 0]solve: 7684.41 [ms]
[OGL LOG][Proc: 0]copy_x_back: 34.308 [ms]
[OGL LOG][lduLduBase.H:380] 
Statistics:
	Time per iteration: 3452 [mu s]
	Time per iteration and DOF: 0.127852 [ns]
	Retrieve results bandwith 2.098000 [GByte/s]
nonecudaGKOCG:  Solving for p, Initial residual = 0.0601133, Final residual = 7.6918e-05, No Iterations 2226
linear solve p 8140146
time step continuity errors : sum local = 2.37979e-10, global = -1.48296e-22, cumulative = -7.08407e-22
ExecutionTime = 992 s  ClockTime = 994 s

Time = 0.000233333

Courant Number mean: 0.00352955 max: 0.0925284
DILUPBiCGStab:  Solving for Ux, Initial residual = 0.0240155, Final residual = 7.58271e-06, No Iterations 5
DILUPBiCGStab:  Solving for Uy, Initial residual = 0.0403742, Final residual = 5.15439e-06, No Iterations 5
DILUPBiCGStab:  Solving for Uz, Initial residual = 0.0654845, Final residual = 1.72709e-05, No Iterations 5
linear solve U 12014467
[OGL LOG][Proc: 0]global_index_init: 0.006 [ms]
[OGL LOG][Proc: 0]global_index_init: 0 [ms]
[OGL LOG][Proc: 0]update_host_matrix_data: 232.271 [ms]
[OGL LOG][Proc: 0]gather_global_matrix: 0 [ms]
[OGL LOG][Proc: 0]generate_distributed_matrix: 110.187 [ms]
[OGL LOG][Proc: 0]init_precond: 0.034 [ms]
[OGL LOG][Proc: 0]generate_solver: 0.002 [ms]
[OGL LOG][Proc: 0]solve: 7690.15 [ms]
[OGL LOG][Proc: 0]copy_x_back: 34.414 [ms]
[OGL LOG][lduLduBase.H:380] 
Statistics:
	Time per iteration: 3454 [mu s]
	Time per iteration and DOF: 0.127926 [ns]
	Retrieve results bandwith 2.092000 [GByte/s]
nonecudaGKOCG:  Solving for p, Initial residual = 0.0469496, Final residual = 8.04951e-05, No Iterations 2226
linear solve p 8136621
time step continuity errors : sum local = 2.45668e-10, global = 4.29186e-23, cumulative = -6.65488e-22
[OGL LOG][Proc: 0]global_index_init: 0.006 [ms]
[OGL LOG][Proc: 0]global_index_init: 0 [ms]
[OGL LOG][Proc: 0]update_host_matrix_data: 230.693 [ms]
[OGL LOG][Proc: 0]gather_global_matrix: 0 [ms]
[OGL LOG][Proc: 0]generate_distributed_matrix: 108.995 [ms]
[OGL LOG][Proc: 0]init_precond: 0.035 [ms]
[OGL LOG][Proc: 0]generate_solver: 0.002 [ms]
[OGL LOG][Proc: 0]solve: 7691.32 [ms]
[OGL LOG][Proc: 0]copy_x_back: 34.294 [ms]
[OGL LOG][lduLduBase.H:380] 
Statistics:
	Time per iteration: 3455 [mu s]
	Time per iteration and DOF: 0.127963 [ns]
	Retrieve results bandwith 2.099000 [GByte/s]
nonecudaGKOCG:  Solving for p, Initial residual = 0.0402059, Final residual = 7.52536e-05, No Iterations 2226
linear solve p 8139103
time step continuity errors : sum local = 2.29802e-10, global = -8.30927e-23, cumulative = -7.48581e-22
ExecutionTime = 1028.67 s  ClockTime = 1031 s

Time = 0.000266667

Courant Number mean: 0.00379264 max: 0.0931238
DILUPBiCGStab:  Solving for Ux, Initial residual = 0.0207922, Final residual = 6.21865e-06, No Iterations 5
DILUPBiCGStab:  Solving for Uy, Initial residual = 0.0342855, Final residual = 3.02861e-06, No Iterations 5
DILUPBiCGStab:  Solving for Uz, Initial residual = 0.0574071, Final residual = 1.22619e-05, No Iterations 5
linear solve U 12008019
[OGL LOG][Proc: 0]global_index_init: 0.009 [ms]
[OGL LOG][Proc: 0]global_index_init: 0 [ms]
[OGL LOG][Proc: 0]update_host_matrix_data: 231.49 [ms]
[OGL LOG][Proc: 0]gather_global_matrix: 0 [ms]
[OGL LOG][Proc: 0]generate_distributed_matrix: 114.551 [ms]
[OGL LOG][Proc: 0]init_precond: 0.034 [ms]
[OGL LOG][Proc: 0]generate_solver: 0.002 [ms]
[OGL LOG][Proc: 0]solve: 7682.34 [ms]
[OGL LOG][Proc: 0]copy_x_back: 34.804 [ms]
[OGL LOG][lduLduBase.H:380] 
Statistics:
	Time per iteration: 3451 [mu s]
	Time per iteration and DOF: 0.127815 [ns]
	Retrieve results bandwith 2.068000 [GByte/s]
nonecudaGKOCG:  Solving for p, Initial residual = 0.0319966, Final residual = 3.29045e-05, No Iterations 2226
linear solve p 8138532
time step continuity errors : sum local = 9.9861e-11, global = -1.24968e-22, cumulative = -8.73549e-22
[OGL LOG][Proc: 0]global_index_init: 0.007 [ms]
[OGL LOG][Proc: 0]global_index_init: 0 [ms]
[OGL LOG][Proc: 0]update_host_matrix_data: 231.538 [ms]
[OGL LOG][Proc: 0]gather_global_matrix: 0 [ms]
[OGL LOG][Proc: 0]generate_distributed_matrix: 110.543 [ms]
[OGL LOG][Proc: 0]init_precond: 0.037 [ms]
[OGL LOG][Proc: 0]generate_solver: 0.002 [ms]
[OGL LOG][Proc: 0]solve: 7711.33 [ms]
[OGL LOG][Proc: 0]copy_x_back: 34.405 [ms]
[OGL LOG][lduLduBase.H:380] 
Statistics:
	Time per iteration: 3464 [mu s]
	Time per iteration and DOF: 0.128296 [ns]
	Retrieve results bandwith 2.092000 [GByte/s]
nonecudaGKOCG:  Solving for p, Initial residual = 0.0280898, Final residual = 2.14584e-05, No Iterations 2226
linear solve p 8157772
time step continuity errors : sum local = 6.5239e-11, global = -8.12631e-23, cumulative = -9.54812e-22
ExecutionTime = 1065.33 s  ClockTime = 1068 s

Time = 0.0003

Courant Number mean: 0.00403247 max: 0.0935908
DILUPBiCGStab:  Solving for Ux, Initial residual = 0.0183558, Final residual = 4.96273e-06, No Iterations 5
DILUPBiCGStab:  Solving for Uy, Initial residual = 0.0297906, Final residual = 2.9211e-06, No Iterations 5
DILUPBiCGStab:  Solving for Uz, Initial residual = 0.0514828, Final residual = 9.06621e-06, No Iterations 5
linear solve U 12062758
[OGL LOG][Proc: 0]global_index_init: 0.011 [ms]
[OGL LOG][Proc: 0]global_index_init: 0 [ms]
[OGL LOG][Proc: 0]update_host_matrix_data: 230.924 [ms]
[OGL LOG][Proc: 0]gather_global_matrix: 0 [ms]
[OGL LOG][Proc: 0]generate_distributed_matrix: 114.075 [ms]
[OGL LOG][Proc: 0]init_precond: 0.036 [ms]
[OGL LOG][Proc: 0]generate_solver: 0.002 [ms]
[OGL LOG][Proc: 0]solve: 7713.33 [ms]
[OGL LOG][Proc: 0]copy_x_back: 33.885 [ms]
[OGL LOG][lduLduBase.H:380] 
Statistics:
	Time per iteration: 3465 [mu s]
	Time per iteration and DOF: 0.128333 [ns]
	Retrieve results bandwith 2.124000 [GByte/s]
nonecudaGKOCG:  Solving for p, Initial residual = 0.0249394, Final residual = 5.62514e-05, No Iterations 2226
linear solve p 8167861
time step continuity errors : sum local = 1.70693e-10, global = -2.2328e-22, cumulative = -1.17809e-21
[OGL LOG][Proc: 0]global_index_init: 0.007 [ms]
[OGL LOG][Proc: 0]global_index_init: 0 [ms]
[OGL LOG][Proc: 0]update_host_matrix_data: 230.098 [ms]
[OGL LOG][Proc: 0]gather_global_matrix: 0 [ms]
[OGL LOG][Proc: 0]generate_distributed_matrix: 110.023 [ms]
[OGL LOG][Proc: 0]init_precond: 0.032 [ms]
[OGL LOG][Proc: 0]generate_solver: 0.002 [ms]
[OGL LOG][Proc: 0]solve: 7682.51 [ms]
[OGL LOG][Proc: 0]copy_x_back: 35.088 [ms]
[OGL LOG][lduLduBase.H:380] 
Statistics:
	Time per iteration: 3451 [mu s]
	Time per iteration and DOF: 0.127815 [ns]
	Retrieve results bandwith 2.051000 [GByte/s]
nonecudaGKOCG:  Solving for p, Initial residual = 0.0223264, Final residual = 4.89231e-05, No Iterations 2226
linear solve p 8121797
time step continuity errors : sum local = 1.48583e-10, global = -1.1638e-22, cumulative = -1.29447e-21
ExecutionTime = 1102 s  ClockTime = 1105 s

Time = 0.000333333

Courant Number mean: 0.00425373 max: 0.0939696
DILUPBiCGStab:  Solving for Ux, Initial residual = 0.0164422, Final residual = 4.00218e-06, No Iterations 5
DILUPBiCGStab:  Solving for Uy, Initial residual = 0.0263207, Final residual = 2.12822e-06, No Iterations 5
DILUPBiCGStab:  Solving for Uz, Initial residual = 0.0462898, Final residual = 7.13912e-06, No Iterations 5
linear solve U 12094262
[OGL LOG][Proc: 0]global_index_init: 0.007 [ms]
[OGL LOG][Proc: 0]global_index_init: 0 [ms]
[OGL LOG][Proc: 0]update_host_matrix_data: 232.639 [ms]
[OGL LOG][Proc: 0]gather_global_matrix: 0 [ms]
[OGL LOG][Proc: 0]generate_distributed_matrix: 108.896 [ms]
[OGL LOG][Proc: 0]init_precond: 0.037 [ms]
[OGL LOG][Proc: 0]generate_solver: 0.002 [ms]
[OGL LOG][Proc: 0]solve: 7707.27 [ms]
[OGL LOG][Proc: 0]copy_x_back: 33.991 [ms]
[OGL LOG][lduLduBase.H:380] 
Statistics:
	Time per iteration: 3462 [mu s]
	Time per iteration and DOF: 0.128222 [ns]
	Retrieve results bandwith 2.118000 [GByte/s]
nonecudaGKOCG:  Solving for p, Initial residual = 0.0193367, Final residual = 4.20979e-05, No Iterations 2226
linear solve p 8159662
time step continuity errors : sum local = 1.27759e-10, global = -1.54395e-22, cumulative = -1.44887e-21
[OGL LOG][Proc: 0]global_index_init: 0.006 [ms]
[OGL LOG][Proc: 0]global_index_init: 0.001 [ms]
[OGL LOG][Proc: 0]update_host_matrix_data: 231.049 [ms]
[OGL LOG][Proc: 0]gather_global_matrix: 0 [ms]
[OGL LOG][Proc: 0]generate_distributed_matrix: 115.924 [ms]
[OGL LOG][Proc: 0]init_precond: 0.034 [ms]
[OGL LOG][Proc: 0]generate_solver: 0.002 [ms]
[OGL LOG][Proc: 0]solve: 7680.86 [ms]
[OGL LOG][Proc: 0]copy_x_back: 34.278 [ms]
[OGL LOG][lduLduBase.H:380] 
Statistics:
	Time per iteration: 3450 [mu s]
	Time per iteration and DOF: 0.127778 [ns]
	Retrieve results bandwith 2.100000 [GByte/s]
nonecudaGKOCG:  Solving for p, Initial residual = 0.017644, Final residual = 3.39309e-05, No Iterations 2226
linear solve p 8126363
time step continuity errors : sum local = 1.03086e-10, global = -1.14264e-22, cumulative = -1.56313e-21
ExecutionTime = 1138.75 s  ClockTime = 1142 s

Time = 0.000366667

Courant Number mean: 0.0044595 max: 0.094285
DILUPBiCGStab:  Solving for Ux, Initial residual = 0.0148967, Final residual = 3.25997e-06, No Iterations 5
DILUPBiCGStab:  Solving for Uy, Initial residual = 0.0235705, Final residual = 1.94721e-06, No Iterations 5
DILUPBiCGStab:  Solving for Uz, Initial residual = 0.0421915, Final residual = 5.73528e-06, No Iterations 5
linear solve U 12030076
[OGL LOG][Proc: 0]global_index_init: 0.014 [ms]
[OGL LOG][Proc: 0]global_index_init: 0 [ms]
[OGL LOG][Proc: 0]update_host_matrix_data: 231.746 [ms]
[OGL LOG][Proc: 0]gather_global_matrix: 0 [ms]
[OGL LOG][Proc: 0]generate_distributed_matrix: 108.976 [ms]
[OGL LOG][Proc: 0]init_precond: 0.032 [ms]
[OGL LOG][Proc: 0]generate_solver: 0.001 [ms]
[OGL LOG][Proc: 0]solve: 7687.28 [ms]
[OGL LOG][Proc: 0]copy_x_back: 33.691 [ms]
[OGL LOG][lduLduBase.H:380] 
Statistics:
	Time per iteration: 3453 [mu s]
	Time per iteration and DOF: 0.127889 [ns]
	Retrieve results bandwith 2.137000 [GByte/s]
nonecudaGKOCG:  Solving for p, Initial residual = 0.0164585, Final residual = 4.15874e-05, No Iterations 2226
linear solve p 8132356
time step continuity errors : sum local = 1.26282e-10, global = -9.52207e-23, cumulative = -1.65835e-21
[OGL LOG][Proc: 0]global_index_init: 0.007 [ms]
[OGL LOG][Proc: 0]global_index_init: 0 [ms]
[OGL LOG][Proc: 0]update_host_matrix_data: 230.101 [ms]
[OGL LOG][Proc: 0]gather_global_matrix: 0 [ms]
[OGL LOG][Proc: 0]generate_distributed_matrix: 117.187 [ms]
[OGL LOG][Proc: 0]init_precond: 0.034 [ms]
[OGL LOG][Proc: 0]generate_solver: 0.002 [ms]
[OGL LOG][Proc: 0]solve: 7696.02 [ms]
[OGL LOG][Proc: 0]copy_x_back: 34.52 [ms]
[OGL LOG][lduLduBase.H:380] 
Statistics:
	Time per iteration: 3457 [mu s]
	Time per iteration and DOF: 0.128037 [ns]
	Retrieve results bandwith 2.085000 [GByte/s]
nonecudaGKOCG:  Solving for p, Initial residual = 0.0150975, Final residual = 3.38791e-05, No Iterations 2226
linear solve p 8151242
time step continuity errors : sum local = 1.02952e-10, global = -4.70156e-23, cumulative = -1.70537e-21
ExecutionTime = 1175.45 s  ClockTime = 1178 s

Time = 0.0004

Courant Number mean: 0.00465206 max: 0.0945529
DILUPBiCGStab:  Solving for Ux, Initial residual = 0.0136213, Final residual = 2.69935e-06, No Iterations 5
DILUPBiCGStab:  Solving for Uy, Initial residual = 0.021331, Final residual = 1.58746e-06, No Iterations 5
DILUPBiCGStab:  Solving for Uz, Initial residual = 0.0386625, Final residual = 4.77031e-06, No Iterations 5
linear solve U 12017423
[OGL LOG][Proc: 0]global_index_init: 0.007 [ms]
[OGL LOG][Proc: 0]global_index_init: 0.001 [ms]
[OGL LOG][Proc: 0]update_host_matrix_data: 230.604 [ms]
[OGL LOG][Proc: 0]gather_global_matrix: 0 [ms]
[OGL LOG][Proc: 0]generate_distributed_matrix: 115.053 [ms]
[OGL LOG][Proc: 0]init_precond: 0.033 [ms]
[OGL LOG][Proc: 0]generate_solver: 0.001 [ms]
[OGL LOG][Proc: 0]solve: 7680.63 [ms]
[OGL LOG][Proc: 0]copy_x_back: 34.215 [ms]
[OGL LOG][lduLduBase.H:380] 
Statistics:
	Time per iteration: 3450 [mu s]
	Time per iteration and DOF: 0.127778 [ns]
	Retrieve results bandwith 2.104000 [GByte/s]
nonecudaGKOCG:  Solving for p, Initial residual = 0.0140304, Final residual = 3.8053e-05, No Iterations 2226
linear solve p 8124672
time step continuity errors : sum local = 1.1566e-10, global = -2.52372e-22, cumulative = -1.95774e-21
[OGL LOG][Proc: 0]global_index_init: 0.006 [ms]
[OGL LOG][Proc: 0]global_index_init: 0.001 [ms]
[OGL LOG][Proc: 0]update_host_matrix_data: 230.601 [ms]
[OGL LOG][Proc: 0]gather_global_matrix: 0 [ms]
[OGL LOG][Proc: 0]generate_distributed_matrix: 114.109 [ms]
[OGL LOG][Proc: 0]init_precond: 0.035 [ms]
[OGL LOG][Proc: 0]generate_solver: 0.002 [ms]
[OGL LOG][Proc: 0]solve: 7726.73 [ms]
[OGL LOG][Proc: 0]copy_x_back: 33.365 [ms]
[OGL LOG][lduLduBase.H:380] 
Statistics:
	Time per iteration: 3471 [mu s]
	Time per iteration and DOF: 0.128556 [ns]
	Retrieve results bandwith 2.157000 [GByte/s]
nonecudaGKOCG:  Solving for p, Initial residual = 0.0130136, Final residual = 3.07135e-05, No Iterations 2226
linear solve p 8178231
time step continuity errors : sum local = 9.34226e-11, global = -1.25839e-22, cumulative = -2.08358e-21
ExecutionTime = 1212.18 s  ClockTime = 1215 s

Time = 0.000433333

Courant Number mean: 0.00483364 max: 0.094784
DILUPBiCGStab:  Solving for Ux, Initial residual = 0.0125491, Final residual = 2.27227e-06, No Iterations 5
DILUPBiCGStab:  Solving for Uy, Initial residual = 0.0194756, Final residual = 1.42785e-06, No Iterations 5
DILUPBiCGStab:  Solving for Uz, Initial residual = 0.0356751, Final residual = 4.0062e-06, No Iterations 5
linear solve U 12016496
[OGL LOG][Proc: 0]global_index_init: 0.006 [ms]
[OGL LOG][Proc: 0]global_index_init: 0 [ms]
[OGL LOG][Proc: 0]update_host_matrix_data: 230.385 [ms]
[OGL LOG][Proc: 0]gather_global_matrix: 0 [ms]
[OGL LOG][Proc: 0]generate_distributed_matrix: 109.151 [ms]
[OGL LOG][Proc: 0]init_precond: 0.034 [ms]
[OGL LOG][Proc: 0]generate_solver: 0.002 [ms]
[OGL LOG][Proc: 0]solve: 7685.2 [ms]
[OGL LOG][Proc: 0]copy_x_back: 34.805 [ms]
[OGL LOG][lduLduBase.H:380] 
Statistics:
	Time per iteration: 3452 [mu s]
	Time per iteration and DOF: 0.127852 [ns]
	Retrieve results bandwith 2.068000 [GByte/s]
nonecudaGKOCG:  Solving for p, Initial residual = 0.0123194, Final residual = 3.18763e-05, No Iterations 2226
linear solve p 8134848
time step continuity errors : sum local = 9.69521e-11, global = -2.80008e-22, cumulative = -2.36359e-21
[OGL LOG][Proc: 0]global_index_init: 0.006 [ms]
[OGL LOG][Proc: 0]global_index_init: 0 [ms]
[OGL LOG][Proc: 0]update_host_matrix_data: 229.954 [ms]
[OGL LOG][Proc: 0]gather_global_matrix: 0 [ms]
[OGL LOG][Proc: 0]generate_distributed_matrix: 109.659 [ms]
[OGL LOG][Proc: 0]init_precond: 0.034 [ms]
[OGL LOG][Proc: 0]generate_solver: 0.002 [ms]
[OGL LOG][Proc: 0]solve: 7391.61 [ms]
[OGL LOG][Proc: 0]copy_x_back: 34.403 [ms]
[OGL LOG][lduLduBase.H:380] 
Statistics:
	Time per iteration: 3458 [mu s]
	Time per iteration and DOF: 0.128074 [ns]
	Retrieve results bandwith 2.092000 [GByte/s]
nonecudaGKOCG:  Solving for p, Initial residual = 0.0114619, Final residual = 9.47206e-05, No Iterations 2137
linear solve p 7835509
time step continuity errors : sum local = 2.88272e-10, global = -5.25694e-22, cumulative = -2.88928e-21
ExecutionTime = 1248.57 s  ClockTime = 1252 s

Time = 0.000466667

Courant Number mean: 0.00500521 max: 0.0949862
DILUPBiCGStab:  Solving for Ux, Initial residual = 0.0116345, Final residual = 1.94183e-06, No Iterations 5
DILUPBiCGStab:  Solving for Uy, Initial residual = 0.0179111, Final residual = 1.23615e-06, No Iterations 5
DILUPBiCGStab:  Solving for Uz, Initial residual = 0.0330378, Final residual = 3.4216e-06, No Iterations 5
linear solve U 12053626
[OGL LOG][Proc: 0]global_index_init: 0.009 [ms]
[OGL LOG][Proc: 0]global_index_init: 0 [ms]
[OGL LOG][Proc: 0]update_host_matrix_data: 231.034 [ms]
[OGL LOG][Proc: 0]gather_global_matrix: 0 [ms]
[OGL LOG][Proc: 0]generate_distributed_matrix: 114.261 [ms]
[OGL LOG][Proc: 0]init_precond: 0.035 [ms]
[OGL LOG][Proc: 0]generate_solver: 0.002 [ms]
[OGL LOG][Proc: 0]solve: 7391.75 [ms]
[OGL LOG][Proc: 0]copy_x_back: 33.811 [ms]
[OGL LOG][lduLduBase.H:380] 
Statistics:
	Time per iteration: 3476 [mu s]
	Time per iteration and DOF: 0.128741 [ns]
	Retrieve results bandwith 2.129000 [GByte/s]
nonecudaGKOCG:  Solving for p, Initial residual = 0.0111445, Final residual = 8.4686e-05, No Iterations 2126
linear solve p 7846331
time step continuity errors : sum local = 2.57847e-10, global = -2.72615e-22, cumulative = -3.16189e-21
[OGL LOG][Proc: 0]global_index_init: 0.006 [ms]
[OGL LOG][Proc: 0]global_index_init: 0.001 [ms]
[OGL LOG][Proc: 0]update_host_matrix_data: 230.81 [ms]
[OGL LOG][Proc: 0]gather_global_matrix: 0 [ms]
[OGL LOG][Proc: 0]generate_distributed_matrix: 108.66 [ms]
[OGL LOG][Proc: 0]init_precond: 0.032 [ms]
[OGL LOG][Proc: 0]generate_solver: 0.002 [ms]
[OGL LOG][Proc: 0]solve: 7353.92 [ms]
[OGL LOG][Proc: 0]copy_x_back: 34.795 [ms]
[OGL LOG][lduLduBase.H:380] 
Statistics:
	Time per iteration: 3459 [mu s]
	Time per iteration and DOF: 0.128111 [ns]
	Retrieve results bandwith 2.069000 [GByte/s]
nonecudaGKOCG:  Solving for p, Initial residual = 0.0103928, Final residual = 7.37716e-05, No Iterations 2126
linear solve p 7792369
time step continuity errors : sum local = 2.2474e-10, global = -2.32412e-22, cumulative = -3.39431e-21
ExecutionTime = 1284.58 s  ClockTime = 1288 s

Time = 0.0005

Courant Number mean: 0.00516842 max: 0.0951649
DILUPBiCGStab:  Solving for Ux, Initial residual = 0.0108444, Final residual = 1.68673e-06, No Iterations 5
DILUPBiCGStab:  Solving for Uy, Initial residual = 0.0165756, Final residual = 1.11506e-06, No Iterations 5
DILUPBiCGStab:  Solving for Uz, Initial residual = 0.0307441, Final residual = 2.95238e-06, No Iterations 5
linear solve U 12079764
[OGL LOG][Proc: 0]global_index_init: 0.008 [ms]
[OGL LOG][Proc: 0]global_index_init: 0 [ms]
[OGL LOG][Proc: 0]update_host_matrix_data: 231.181 [ms]
[OGL LOG][Proc: 0]gather_global_matrix: 0 [ms]
[OGL LOG][Proc: 0]generate_distributed_matrix: 113.972 [ms]
[OGL LOG][Proc: 0]init_precond: 0.035 [ms]
[OGL LOG][Proc: 0]generate_solver: 0.001 [ms]
[OGL LOG][Proc: 0]solve: 7361.45 [ms]
[OGL LOG][Proc: 0]copy_x_back: 33.394 [ms]
[OGL LOG][lduLduBase.H:380] 
Statistics:
	Time per iteration: 3462 [mu s]
	Time per iteration and DOF: 0.128222 [ns]
	Retrieve results bandwith 2.156000 [GByte/s]
nonecudaGKOCG:  Solving for p, Initial residual = 0.0102227, Final residual = 6.76906e-05, No Iterations 2126
linear solve p 7813842
time step continuity errors : sum local = 2.06273e-10, global = -6.80964e-23, cumulative = -3.4624e-21
[OGL LOG][Proc: 0]global_index_init: 0.006 [ms]
[OGL LOG][Proc: 0]global_index_init: 0 [ms]
[OGL LOG][Proc: 0]update_host_matrix_data: 230.676 [ms]
[OGL LOG][Proc: 0]gather_global_matrix: 0 [ms]
[OGL LOG][Proc: 0]generate_distributed_matrix: 108.816 [ms]
[OGL LOG][Proc: 0]init_precond: 0.033 [ms]
[OGL LOG][Proc: 0]generate_solver: 0.002 [ms]
[OGL LOG][Proc: 0]solve: 7352.82 [ms]
[OGL LOG][Proc: 0]copy_x_back: 34.521 [ms]
[OGL LOG][lduLduBase.H:380] 
Statistics:
	Time per iteration: 3458 [mu s]
	Time per iteration and DOF: 0.128074 [ns]
	Retrieve results bandwith 2.085000 [GByte/s]
nonecudaGKOCG:  Solving for p, Initial residual = 0.00956026, Final residual = 4.97661e-05, No Iterations 2126
linear solve p 7802490
time step continuity errors : sum local = 1.51723e-10, global = -9.26143e-23, cumulative = -3.55502e-21
ExecutionTime = 1320.65 s  ClockTime = 1324 s

Time = 0.000533333

Courant Number mean: 0.00532375 max: 0.0953243
DILUPBiCGStab:  Solving for Ux, Initial residual = 0.0101548, Final residual = 1.48689e-06, No Iterations 5
DILUPBiCGStab:  Solving for Uy, Initial residual = 0.0154214, Final residual = 9.98262e-07, No Iterations 5
DILUPBiCGStab:  Solving for Uz, Initial residual = 0.0288591, Final residual = 2.58531e-06, No Iterations 5
linear solve U 12027917
[OGL LOG][Proc: 0]global_index_init: 0.007 [ms]
[OGL LOG][Proc: 0]global_index_init: 0 [ms]
[OGL LOG][Proc: 0]update_host_matrix_data: 232.742 [ms]
[OGL LOG][Proc: 0]gather_global_matrix: 0 [ms]
[OGL LOG][Proc: 0]generate_distributed_matrix: 108.526 [ms]
[OGL LOG][Proc: 0]init_precond: 0.033 [ms]
[OGL LOG][Proc: 0]generate_solver: 0.002 [ms]
[OGL LOG][Proc: 0]solve: 7372.59 [ms]
[OGL LOG][Proc: 0]copy_x_back: 33.975 [ms]
[OGL LOG][lduLduBase.H:380] 
Statistics:
	Time per iteration: 3467 [mu s]
	Time per iteration and DOF: 0.128407 [ns]
	Retrieve results bandwith 2.119000 [GByte/s]
nonecudaGKOCG:  Solving for p, Initial residual = 0.00912492, Final residual = 8.01318e-05, No Iterations 2126
linear solve p 7823024
time step continuity errors : sum local = 2.44309e-10, global = -4.75452e-23, cumulative = -3.60256e-21
[OGL LOG][Proc: 0]global_index_init: 0.006 [ms]
[OGL LOG][Proc: 0]global_index_init: 0 [ms]
[OGL LOG][Proc: 0]update_host_matrix_data: 230.252 [ms]
[OGL LOG][Proc: 0]gather_global_matrix: 0 [ms]
[OGL LOG][Proc: 0]generate_distributed_matrix: 113.852 [ms]
[OGL LOG][Proc: 0]init_precond: 0.034 [ms]
[OGL LOG][Proc: 0]generate_solver: 0.002 [ms]
[OGL LOG][Proc: 0]solve: 7352.25 [ms]
[OGL LOG][Proc: 0]copy_x_back: 34.472 [ms]
[OGL LOG][lduLduBase.H:380] 
Statistics:
	Time per iteration: 3458 [mu s]
	Time per iteration and DOF: 0.128074 [ns]
	Retrieve results bandwith 2.088000 [GByte/s]
nonecudaGKOCG:  Solving for p, Initial residual = 0.00855836, Final residual = 5.4299e-05, No Iterations 2126
linear solve p 7806162
time step continuity errors : sum local = 1.65626e-10, global = -1.37997e-22, cumulative = -3.74056e-21
ExecutionTime = 1356.67 s  ClockTime = 1360 s

Time = 0.000566667

Courant Number mean: 0.00547247 max: 0.0954678
DILUPBiCGStab:  Solving for Ux, Initial residual = 0.00954787, Final residual = 1.32909e-06, No Iterations 5
DILUPBiCGStab:  Solving for Uy, Initial residual = 0.0144144, Final residual = 9.09628e-07, No Iterations 5
DILUPBiCGStab:  Solving for Uz, Initial residual = 0.0271906, Final residual = 2.27832e-06, No Iterations 5
linear solve U 11977096
[OGL LOG][Proc: 0]global_index_init: 0.006 [ms]
[OGL LOG][Proc: 0]global_index_init: 0.001 [ms]
[OGL LOG][Proc: 0]update_host_matrix_data: 231.044 [ms]
[OGL LOG][Proc: 0]gather_global_matrix: 0 [ms]
[OGL LOG][Proc: 0]generate_distributed_matrix: 109.763 [ms]
[OGL LOG][Proc: 0]init_precond: 0.037 [ms]
[OGL LOG][Proc: 0]generate_solver: 0.001 [ms]
[OGL LOG][Proc: 0]solve: 7364.07 [ms]
[OGL LOG][Proc: 0]copy_x_back: 34.334 [ms]
[OGL LOG][lduLduBase.H:380] 
Statistics:
	Time per iteration: 3463 [mu s]
	Time per iteration and DOF: 0.128259 [ns]
	Retrieve results bandwith 2.097000 [GByte/s]
nonecudaGKOCG:  Solving for p, Initial residual = 0.00845855, Final residual = 8.29207e-05, No Iterations 2126
linear solve p 7809378
time step continuity errors : sum local = 2.52994e-10, global = -1.17694e-22, cumulative = -3.85825e-21
[OGL LOG][Proc: 0]global_index_init: 0.007 [ms]
[OGL LOG][Proc: 0]global_index_init: 0 [ms]
[OGL LOG][Proc: 0]update_host_matrix_data: 231.061 [ms]
[OGL LOG][Proc: 0]gather_global_matrix: 0 [ms]
[OGL LOG][Proc: 0]generate_distributed_matrix: 114.422 [ms]
[OGL LOG][Proc: 0]init_precond: 0.033 [ms]
[OGL LOG][Proc: 0]generate_solver: 0.002 [ms]
[OGL LOG][Proc: 0]solve: 7391.9 [ms]
[OGL LOG][Proc: 0]copy_x_back: 33.551 [ms]
[OGL LOG][lduLduBase.H:380] 
Statistics:
	Time per iteration: 3476 [mu s]
	Time per iteration and DOF: 0.128741 [ns]
	Retrieve results bandwith 2.145000 [GByte/s]
nonecudaGKOCG:  Solving for p, Initial residual = 0.00793891, Final residual = 5.94732e-05, No Iterations 2126
linear solve p 7844030
time step continuity errors : sum local = 1.81529e-10, global = -1.18046e-22, cumulative = -3.9763e-21
ExecutionTime = 1392.67 s  ClockTime = 1396 s

Time = 0.0006

Courant Number mean: 0.00561482 max: 0.0955977
DILUPBiCGStab:  Solving for Ux, Initial residual = 0.00900869, Final residual = 1.22249e-06, No Iterations 5
DILUPBiCGStab:  Solving for Uy, Initial residual = 0.013528, Final residual = 8.30291e-07, No Iterations 5
DILUPBiCGStab:  Solving for Uz, Initial residual = 0.0255705, Final residual = 2.01517e-06, No Iterations 5
linear solve U 12024163
[OGL LOG][Proc: 0]global_index_init: 0.006 [ms]
[OGL LOG][Proc: 0]global_index_init: 0.001 [ms]
[OGL LOG][Proc: 0]update_host_matrix_data: 231.958 [ms]
[OGL LOG][Proc: 0]gather_global_matrix: 0 [ms]
[OGL LOG][Proc: 0]generate_distributed_matrix: 108.853 [ms]
[OGL LOG][Proc: 0]init_precond: 0.032 [ms]
[OGL LOG][Proc: 0]generate_solver: 0.002 [ms]
[OGL LOG][Proc: 0]solve: 7357.28 [ms]
[OGL LOG][Proc: 0]copy_x_back: 34.542 [ms]
[OGL LOG][lduLduBase.H:380] 
Statistics:
	Time per iteration: 3460 [mu s]
	Time per iteration and DOF: 0.128148 [ns]
	Retrieve results bandwith 2.084000 [GByte/s]
nonecudaGKOCG:  Solving for p, Initial residual = 0.00781426, Final residual = 9.18173e-05, No Iterations 2126
linear solve p 7807966
time step continuity errors : sum local = 2.80315e-10, global = -1.61295e-22, cumulative = -4.1376e-21
[OGL LOG][Proc: 0]global_index_init: 0.009 [ms]
[OGL LOG][Proc: 0]global_index_init: 0.001 [ms]
[OGL LOG][Proc: 0]update_host_matrix_data: 230.153 [ms]
[OGL LOG][Proc: 0]gather_global_matrix: 0 [ms]
[OGL LOG][Proc: 0]generate_distributed_matrix: 109.945 [ms]
[OGL LOG][Proc: 0]init_precond: 0.035 [ms]
[OGL LOG][Proc: 0]generate_solver: 0.001 [ms]
[OGL LOG][Proc: 0]solve: 7363.38 [ms]
[OGL LOG][Proc: 0]copy_x_back: 34.198 [ms]
[OGL LOG][lduLduBase.H:380] 
Statistics:
	Time per iteration: 3463 [mu s]
	Time per iteration and DOF: 0.128259 [ns]
	Retrieve results bandwith 2.105000 [GByte/s]
nonecudaGKOCG:  Solving for p, Initial residual = 0.00734897, Final residual = 7.198e-05, No Iterations 2126
linear solve p 7806671
time step continuity errors : sum local = 2.19837e-10, global = -2.2413e-22, cumulative = -4.36173e-21
ExecutionTime = 1428.68 s  ClockTime = 1432 s

Time = 0.000633333

Courant Number mean: 0.00575172 max: 0.0957161
DILUPBiCGStab:  Solving for Ux, Initial residual = 0.00852663, Final residual = 1.13888e-06, No Iterations 5
DILUPBiCGStab:  Solving for Uy, Initial residual = 0.0127419, Final residual = 7.64427e-07, No Iterations 5
DILUPBiCGStab:  Solving for Uz, Initial residual = 0.0242416, Final residual = 1.80439e-06, No Iterations 5
linear solve U 12050153
[OGL LOG][Proc: 0]global_index_init: 0.007 [ms]
[OGL LOG][Proc: 0]global_index_init: 0.001 [ms]
[OGL LOG][Proc: 0]update_host_matrix_data: 231.415 [ms]
[OGL LOG][Proc: 0]gather_global_matrix: 0 [ms]
[OGL LOG][Proc: 0]generate_distributed_matrix: 114.736 [ms]
[OGL LOG][Proc: 0]init_precond: 0.037 [ms]
[OGL LOG][Proc: 0]generate_solver: 0.001 [ms]
[OGL LOG][Proc: 0]solve: 5996.75 [ms]
[OGL LOG][Proc: 0]copy_x_back: 33.765 [ms]
[OGL LOG][lduLduBase.H:380] 
Statistics:
	Time per iteration: 3525 [mu s]
	Time per iteration and DOF: 0.130556 [ns]
	Retrieve results bandwith 2.132000 [GByte/s]
nonecudaGKOCG:  Solving for p, Initial residual = 0.00733075, Final residual = 9.90047e-05, No Iterations 1701
linear solve p 6452266
time step continuity errors : sum local = 3.04215e-10, global = -4.33084e-22, cumulative = -4.79481e-21
[OGL LOG][Proc: 0]global_index_init: 0.006 [ms]
[OGL LOG][Proc: 0]global_index_init: 0 [ms]
[OGL LOG][Proc: 0]update_host_matrix_data: 230.808 [ms]
[OGL LOG][Proc: 0]gather_global_matrix: 0 [ms]
[OGL LOG][Proc: 0]generate_distributed_matrix: 110.418 [ms]
[OGL LOG][Proc: 0]init_precond: 0.034 [ms]
[OGL LOG][Proc: 0]generate_solver: 0.002 [ms]
[OGL LOG][Proc: 0]solve: 4860.15 [ms]
[OGL LOG][Proc: 0]copy_x_back: 34.864 [ms]
[OGL LOG][lduLduBase.H:380] 
Statistics:
	Time per iteration: 3571 [mu s]
	Time per iteration and DOF: 0.132259 [ns]
	Retrieve results bandwith 2.065000 [GByte/s]
nonecudaGKOCG:  Solving for p, Initial residual = 0.00686547, Final residual = 3.29721e-06, No Iterations 1361
linear solve p 5300093
time step continuity errors : sum local = 1.05838e-11, global = -6.46198e-23, cumulative = -4.85943e-21
ExecutionTime = 1460.82 s  ClockTime = 1465 s

Time = 0.000666667

Courant Number mean: 0.00588346 max: 0.0958246
DILUPBiCGStab:  Solving for Ux, Initial residual = 0.00809307, Final residual = 1.0661e-06, No Iterations 5
DILUPBiCGStab:  Solving for Uy, Initial residual = 0.0120405, Final residual = 7.06559e-07, No Iterations 5
DILUPBiCGStab:  Solving for Uz, Initial residual = 0.0231417, Final residual = 1.6419e-06, No Iterations 5
linear solve U 12085910
[OGL LOG][Proc: 0]global_index_init: 0.006 [ms]
[OGL LOG][Proc: 0]global_index_init: 0 [ms]
[OGL LOG][Proc: 0]update_host_matrix_data: 234.593 [ms]
[OGL LOG][Proc: 0]gather_global_matrix: 0 [ms]
[OGL LOG][Proc: 0]generate_distributed_matrix: 114.555 [ms]
[OGL LOG][Proc: 0]init_precond: 0.035 [ms]
[OGL LOG][Proc: 0]generate_solver: 0.002 [ms]
[OGL LOG][Proc: 0]solve: 4175.61 [ms]
[OGL LOG][Proc: 0]copy_x_back: 32.693 [ms]
[OGL LOG][lduLduBase.H:380] 
Statistics:
	Time per iteration: 3678 [mu s]
	Time per iteration and DOF: 0.136222 [ns]
	Retrieve results bandwith 2.202000 [GByte/s]
nonecudaGKOCG:  Solving for p, Initial residual = 0.0067627, Final residual = 6.63191e-06, No Iterations 1135
linear solve p 4631590
time step continuity errors : sum local = 2.08293e-11, global = -1.08563e-22, cumulative = -4.96799e-21
[OGL LOG][Proc: 0]global_index_init: 0.007 [ms]
[OGL LOG][Proc: 0]global_index_init: 0.001 [ms]
[OGL LOG][Proc: 0]update_host_matrix_data: 231.503 [ms]
[OGL LOG][Proc: 0]gather_global_matrix: 0 [ms]
[OGL LOG][Proc: 0]generate_distributed_matrix: 109.368 [ms]
[OGL LOG][Proc: 0]init_precond: 0.034 [ms]
[OGL LOG][Proc: 0]generate_solver: 0.002 [ms]
[OGL LOG][Proc: 0]solve: 3509.69 [ms]
[OGL LOG][Proc: 0]copy_x_back: 34.569 [ms]
[OGL LOG][lduLduBase.H:380] 
Statistics:
	Time per iteration: 3710 [mu s]
	Time per iteration and DOF: 0.137407 [ns]
	Retrieve results bandwith 2.082000 [GByte/s]
nonecudaGKOCG:  Solving for p, Initial residual = 0.00632686, Final residual = 2.3831e-05, No Iterations 946
linear solve p 3960653
time step continuity errors : sum local = 7.31086e-11, global = -9.59693e-23, cumulative = -5.06396e-21
ExecutionTime = 1489.86 s  ClockTime = 1494 s

End

Finalising parallel run
================================================================================
hash: fa58b856b6f2be1a2f374273ccb4ce3d
/*---------------------------------------------------------------------------*\
| =========                 |                                                 |
| \\      /  F ield         | OpenFOAM: The Open Source CFD Toolbox           |
|  \\    /   O peration     | Version:  2112                                  |
|   \\  /    A nd           | Website:  www.openfoam.com                      |
|    \\/     M anipulation  |                                                 |
\*---------------------------------------------------------------------------*/
Build  : d44c8318f0-20220111 OPENFOAM=2112 version=v2112
Arch   : "LSB;label=32;scalar=64"
Exec   : icoFoam -parallel
Date   : Jun 27 2022
Time   : 09:57:01
Host   : hkn0814.localdomain
PID    : 1946046
I/O    : uncollated
Case   : /hkfs/work/workspace/scratch/eq4036-lidDrivenCavity/simple/mesh/300/matrix_solver/CG_NoPrecond_CUDA/mpiRank_gko/2/base
nProcs : 2
Hosts  :
(
    (hkn0814.localdomain 2)
)
Pstream initialized with:
    floatTransfer      : 0
    nProcsSimpleSum    : 0
    commsType          : nonBlocking
    polling iterations : 0
trapFpe: Floating point exception trapping enabled (FOAM_SIGFPE).
fileModificationChecking : Monitoring run-time modified files using timeStampMaster (fileModificationSkew 5, maxFileModificationPolls 20)
allowSystemOperations : Allowing user-supplied system call operations

// * * * * * * * * * * * * * * * * * * * * * * * * * * * * * * * * * * * * * //
Create time

Create mesh for time = 0


PISO: Operating solver in PISO mode

Reading transportProperties

Reading field p

Reading field U

Reading/calculating face flux field phi


Starting time loop

Time = 3.33333e-05

Courant Number mean: 0 max: 0
DILUPBiCGStab:  Solving for Ux, Initial residual = 1, Final residual = 0.000459077, No Iterations 5
DILUPBiCGStab:  Solving for Uy:  solution singularity
DILUPBiCGStab:  Solving for Uz:  solution singularity
linear solve U 12547457
[OGL LOG][Proc: 0]global_index_init: 0.025 [ms]
[OGL LOG][Proc: 0]global_index_init: 0.001 [ms]
[OGL LOG][Proc: 0]init_host_sparsity_pattern: 565147 [ms]
[OGL LOG][Proc: 0]update_host_matrix_data: 332.768 [ms]
[OGL LOG][Proc: 0]convert_coo_to_csr: 541.178 [ms]
[OGL LOG][lduLduBase.H:153] Initialising OGL
	Version:  484b851
	branch: HEAD 
	Ginkgo version: 1.5.0(develop)
	MPI is GPU aware: 1)
	Forces host buffer based communication: 1
[OGL LOG][Proc: 0]gather_global_matrix: 0.003 [ms]
[OGL LOG][Proc: 0]generate_distributed_matrix: 146.538 [ms]
[OGL LOG][Proc: 0]init_precond: 0.071 [ms]
[OGL LOG][Proc: 0]generate_solver: 0.019 [ms]
[OGL LOG][Proc: 0]solve: 10319.8 [ms]
[OGL LOG][Proc: 0]copy_x_back: 37.625 [ms]
[OGL LOG][lduLduBase.H:380] 
Statistics:
	Time per iteration: 4238 [mu s]
	Time per iteration and DOF: 0.156963 [ns]
	Retrieve results bandwith 2.870000 [GByte/s]
nonecudaGKOCG:  Solving for p, Initial residual = 1, Final residual = 9.95591e-05, No Iterations 2435
linear solve p 578662595
time step continuity errors : sum local = 3.65832e-10, global = 2.69495e-22, cumulative = 2.69495e-22
[OGL LOG][Proc: 0]global_index_init: 0.005 [ms]
[OGL LOG][Proc: 0]global_index_init: 0 [ms]
[OGL LOG][Proc: 0]update_host_matrix_data: 327.393 [ms]
[OGL LOG][Proc: 0]gather_global_matrix: 0 [ms]
[OGL LOG][Proc: 0]generate_distributed_matrix: 177.153 [ms]
[OGL LOG][Proc: 0]init_precond: 0.042 [ms]
[OGL LOG][Proc: 0]generate_solver: 0.002 [ms]
[OGL LOG][Proc: 0]solve: 9846.72 [ms]
[OGL LOG][Proc: 0]copy_x_back: 48.458 [ms]
[OGL LOG][lduLduBase.H:380] 
Statistics:
	Time per iteration: 4058 [mu s]
	Time per iteration and DOF: 0.150296 [ns]
	Retrieve results bandwith 2.228000 [GByte/s]
nonecudaGKOCG:  Solving for p, Initial residual = 0.688738, Final residual = 7.94572e-05, No Iterations 2426
linear solve p 10504265
time step continuity errors : sum local = 4.04677e-10, global = -3.13877e-23, cumulative = 2.38107e-22
ExecutionTime = 659.69 s  ClockTime = 662 s

Time = 6.66667e-05

Courant Number mean: 0.00132244 max: 0.0715438
DILUPBiCGStab:  Solving for Ux, Initial residual = 0.17237, Final residual = 0.000249813, No Iterations 5
DILUPBiCGStab:  Solving for Uy, Initial residual = 0.340772, Final residual = 0.000135181, No Iterations 5
DILUPBiCGStab:  Solving for Uz, Initial residual = 0.995975, Final residual = 0.000766968, No Iterations 5
linear solve U 28984865
[OGL LOG][Proc: 0]global_index_init: 0.007 [ms]
[OGL LOG][Proc: 0]global_index_init: 0 [ms]
[OGL LOG][Proc: 0]update_host_matrix_data: 329.242 [ms]
[OGL LOG][Proc: 0]gather_global_matrix: 0 [ms]
[OGL LOG][Proc: 0]generate_distributed_matrix: 159.167 [ms]
[OGL LOG][Proc: 0]init_precond: 0.042 [ms]
[OGL LOG][Proc: 0]generate_solver: 0.003 [ms]
[OGL LOG][Proc: 0]solve: 9994.34 [ms]
[OGL LOG][Proc: 0]copy_x_back: 48.425 [ms]
[OGL LOG][lduLduBase.H:380] 
Statistics:
	Time per iteration: 4119 [mu s]
	Time per iteration and DOF: 0.152556 [ns]
	Retrieve results bandwith 2.230000 [GByte/s]
nonecudaGKOCG:  Solving for p, Initial residual = 0.591952, Final residual = 4.24917e-05, No Iterations 2426
linear solve p 10650518
time step continuity errors : sum local = 2.19954e-10, global = 2.63538e-23, cumulative = 2.64461e-22
[OGL LOG][Proc: 0]global_index_init: 0.007 [ms]
[OGL LOG][Proc: 0]global_index_init: 0 [ms]
[OGL LOG][Proc: 0]update_host_matrix_data: 329.106 [ms]
[OGL LOG][Proc: 0]gather_global_matrix: 0 [ms]
[OGL LOG][Proc: 0]generate_distributed_matrix: 156.01 [ms]
[OGL LOG][Proc: 0]init_precond: 0.044 [ms]
[OGL LOG][Proc: 0]generate_solver: 0.002 [ms]
[OGL LOG][Proc: 0]solve: 9993.14 [ms]
[OGL LOG][Proc: 0]copy_x_back: 49.591 [ms]
[OGL LOG][lduLduBase.H:380] 
Statistics:
	Time per iteration: 4119 [mu s]
	Time per iteration and DOF: 0.152556 [ns]
	Retrieve results bandwith 2.177000 [GByte/s]
nonecudaGKOCG:  Solving for p, Initial residual = 0.51252, Final residual = 3.58761e-05, No Iterations 2426
linear solve p 10632601
time step continuity errors : sum local = 1.90025e-10, global = -6.64677e-23, cumulative = 1.97993e-22
ExecutionTime = 721.91 s  ClockTime = 724 s

Time = 0.0001

Courant Number mean: 0.00202537 max: 0.0848305
DILUPBiCGStab:  Solving for Ux, Initial residual = 0.0716928, Final residual = 6.92365e-05, No Iterations 5
DILUPBiCGStab:  Solving for Uy, Initial residual = 0.137121, Final residual = 3.3753e-05, No Iterations 5
DILUPBiCGStab:  Solving for Uz, Initial residual = 0.19438, Final residual = 0.000178632, No Iterations 5
linear solve U 28936909
[OGL LOG][Proc: 0]global_index_init: 0.006 [ms]
[OGL LOG][Proc: 0]global_index_init: 0 [ms]
[OGL LOG][Proc: 0]update_host_matrix_data: 329.381 [ms]
[OGL LOG][Proc: 0]gather_global_matrix: 0 [ms]
[OGL LOG][Proc: 0]generate_distributed_matrix: 159.164 [ms]
[OGL LOG][Proc: 0]init_precond: 0.044 [ms]
[OGL LOG][Proc: 0]generate_solver: 0.002 [ms]
[OGL LOG][Proc: 0]solve: 9607.48 [ms]
[OGL LOG][Proc: 0]copy_x_back: 49.359 [ms]
[OGL LOG][lduLduBase.H:380] 
Statistics:
	Time per iteration: 4125 [mu s]
	Time per iteration and DOF: 0.152778 [ns]
	Retrieve results bandwith 2.188000 [GByte/s]
nonecudaGKOCG:  Solving for p, Initial residual = 0.420622, Final residual = 9.75927e-05, No Iterations 2329
linear solve p 10251007
time step continuity errors : sum local = 3.66549e-10, global = 1.3717e-23, cumulative = 2.1171e-22
[OGL LOG][Proc: 0]global_index_init: 0.008 [ms]
[OGL LOG][Proc: 0]global_index_init: 0 [ms]
[OGL LOG][Proc: 0]update_host_matrix_data: 328.142 [ms]
[OGL LOG][Proc: 0]gather_global_matrix: 0 [ms]
[OGL LOG][Proc: 0]generate_distributed_matrix: 162.167 [ms]
[OGL LOG][Proc: 0]init_precond: 0.041 [ms]
[OGL LOG][Proc: 0]generate_solver: 0.002 [ms]
[OGL LOG][Proc: 0]solve: 9627.68 [ms]
[OGL LOG][Proc: 0]copy_x_back: 48.011 [ms]
[OGL LOG][lduLduBase.H:380] 
Statistics:
	Time per iteration: 4139 [mu s]
	Time per iteration and DOF: 0.153296 [ns]
	Retrieve results bandwith 2.249000 [GByte/s]
nonecudaGKOCG:  Solving for p, Initial residual = 0.365308, Final residual = 9.01205e-05, No Iterations 2326
linear solve p 10269649
time step continuity errors : sum local = 3.32026e-10, global = 8.40067e-23, cumulative = 2.95717e-22
ExecutionTime = 783.38 s  ClockTime = 786 s

Time = 0.000133333

Courant Number mean: 0.00251229 max: 0.0887235
DILUPBiCGStab:  Solving for Ux, Initial residual = 0.0466812, Final residual = 2.34949e-05, No Iterations 5
DILUPBiCGStab:  Solving for Uy, Initial residual = 0.0862039, Final residual = 1.15156e-05, No Iterations 5
DILUPBiCGStab:  Solving for Uz, Initial residual = 0.113595, Final residual = 6.86718e-05, No Iterations 5
linear solve U 28904734
[OGL LOG][Proc: 0]global_index_init: 0.009 [ms]
[OGL LOG][Proc: 0]global_index_init: 0 [ms]
[OGL LOG][Proc: 0]update_host_matrix_data: 331.42 [ms]
[OGL LOG][Proc: 0]gather_global_matrix: 0 [ms]
[OGL LOG][Proc: 0]generate_distributed_matrix: 158.028 [ms]
[OGL LOG][Proc: 0]init_precond: 0.051 [ms]
[OGL LOG][Proc: 0]generate_solver: 0.003 [ms]
[OGL LOG][Proc: 0]solve: 9615.32 [ms]
[OGL LOG][Proc: 0]copy_x_back: 48.47 [ms]
[OGL LOG][lduLduBase.H:380] 
Statistics:
	Time per iteration: 4133 [mu s]
	Time per iteration and DOF: 0.153074 [ns]
	Retrieve results bandwith 2.228000 [GByte/s]
nonecudaGKOCG:  Solving for p, Initial residual = 0.209315, Final residual = 4.08536e-05, No Iterations 2326
linear solve p 10273698
time step continuity errors : sum local = 1.37861e-10, global = -9.16671e-23, cumulative = 2.0405e-22
[OGL LOG][Proc: 0]global_index_init: 0.008 [ms]
[OGL LOG][Proc: 0]global_index_init: 0 [ms]
[OGL LOG][Proc: 0]update_host_matrix_data: 329.742 [ms]
[OGL LOG][Proc: 0]gather_global_matrix: 0 [ms]
[OGL LOG][Proc: 0]generate_distributed_matrix: 155.712 [ms]
[OGL LOG][Proc: 0]init_precond: 0.044 [ms]
[OGL LOG][Proc: 0]generate_solver: 0.002 [ms]
[OGL LOG][Proc: 0]solve: 9608.38 [ms]
[OGL LOG][Proc: 0]copy_x_back: 49.525 [ms]
[OGL LOG][lduLduBase.H:380] 
Statistics:
	Time per iteration: 4130 [mu s]
	Time per iteration and DOF: 0.152963 [ns]
	Retrieve results bandwith 2.180000 [GByte/s]
nonecudaGKOCG:  Solving for p, Initial residual = 0.170265, Final residual = 3.41689e-05, No Iterations 2326
linear solve p 10248667
time step continuity errors : sum local = 1.16267e-10, global = -1.19909e-22, cumulative = 8.41406e-23
ExecutionTime = 844.83 s  ClockTime = 848 s

Time = 0.000166667

Courant Number mean: 0.00290368 max: 0.0905866
DILUPBiCGStab:  Solving for Ux, Initial residual = 0.0352287, Final residual = 7.72957e-06, No Iterations 5
DILUPBiCGStab:  Solving for Uy, Initial residual = 0.0624464, Final residual = 8.26944e-06, No Iterations 5
DILUPBiCGStab:  Solving for Uz, Initial residual = 0.0893419, Final residual = 3.61973e-05, No Iterations 5
linear solve U 28982317
[OGL LOG][Proc: 0]global_index_init: 0.007 [ms]
[OGL LOG][Proc: 0]global_index_init: 0 [ms]
[OGL LOG][Proc: 0]update_host_matrix_data: 329.9 [ms]
[OGL LOG][Proc: 0]gather_global_matrix: 0 [ms]
[OGL LOG][Proc: 0]generate_distributed_matrix: 158.39 [ms]
[OGL LOG][Proc: 0]init_precond: 0.042 [ms]
[OGL LOG][Proc: 0]generate_solver: 0.003 [ms]
[OGL LOG][Proc: 0]solve: 9591.69 [ms]
[OGL LOG][Proc: 0]copy_x_back: 49.759 [ms]
[OGL LOG][lduLduBase.H:380] 
Statistics:
	Time per iteration: 4123 [mu s]
	Time per iteration and DOF: 0.152704 [ns]
	Retrieve results bandwith 2.170000 [GByte/s]
nonecudaGKOCG:  Solving for p, Initial residual = 0.120769, Final residual = 3.10428e-05, No Iterations 2326
linear solve p 10235238
time step continuity errors : sum local = 9.75407e-11, global = -4.05302e-23, cumulative = 4.36104e-23
[OGL LOG][Proc: 0]global_index_init: 0.016 [ms]
[OGL LOG][Proc: 0]global_index_init: 0 [ms]
[OGL LOG][Proc: 0]update_host_matrix_data: 329.491 [ms]
[OGL LOG][Proc: 0]gather_global_matrix: 0 [ms]
[OGL LOG][Proc: 0]generate_distributed_matrix: 150.693 [ms]
[OGL LOG][Proc: 0]init_precond: 0.038 [ms]
[OGL LOG][Proc: 0]generate_solver: 0.002 [ms]
[OGL LOG][Proc: 0]solve: 9248.95 [ms]
[OGL LOG][Proc: 0]copy_x_back: 48.6 [ms]
[OGL LOG][lduLduBase.H:380] 
Statistics:
	Time per iteration: 4141 [mu s]
	Time per iteration and DOF: 0.153370 [ns]
	Retrieve results bandwith 2.222000 [GByte/s]
nonecudaGKOCG:  Solving for p, Initial residual = 0.0999456, Final residual = 9.60115e-05, No Iterations 2233
linear solve p 9892954
time step continuity errors : sum local = 3.01291e-10, global = 6.12124e-23, cumulative = 1.04823e-22
ExecutionTime = 905.92 s  ClockTime = 909 s

Time = 0.0002

Courant Number mean: 0.00323669 max: 0.0917314
DILUPBiCGStab:  Solving for Ux, Initial residual = 0.0284962, Final residual = 7.28252e-06, No Iterations 5
DILUPBiCGStab:  Solving for Uy, Initial residual = 0.0490522, Final residual = 3.27908e-06, No Iterations 5
DILUPBiCGStab:  Solving for Uz, Initial residual = 0.0758115, Final residual = 2.29996e-05, No Iterations 5
linear solve U 28949571
[OGL LOG][Proc: 0]global_index_init: 0.011 [ms]
[OGL LOG][Proc: 0]global_index_init: 0 [ms]
[OGL LOG][Proc: 0]update_host_matrix_data: 328.861 [ms]
[OGL LOG][Proc: 0]gather_global_matrix: 0 [ms]
[OGL LOG][Proc: 0]generate_distributed_matrix: 158.4 [ms]
[OGL LOG][Proc: 0]init_precond: 0.04 [ms]
[OGL LOG][Proc: 0]generate_solver: 0.003 [ms]
[OGL LOG][Proc: 0]solve: 9226.59 [ms]
[OGL LOG][Proc: 0]copy_x_back: 49.651 [ms]
[OGL LOG][lduLduBase.H:380] 
Statistics:
	Time per iteration: 4144 [mu s]
	Time per iteration and DOF: 0.153481 [ns]
	Retrieve results bandwith 2.175000 [GByte/s]
nonecudaGKOCG:  Solving for p, Initial residual = 0.0711916, Final residual = 8.684e-05, No Iterations 2226
linear solve p 9879777
time step continuity errors : sum local = 2.67673e-10, global = -9.17952e-23, cumulative = 1.30276e-23
[OGL LOG][Proc: 0]global_index_init: 0.006 [ms]
[OGL LOG][Proc: 0]global_index_init: 0 [ms]
[OGL LOG][Proc: 0]update_host_matrix_data: 330.002 [ms]
[OGL LOG][Proc: 0]gather_global_matrix: 0 [ms]
[OGL LOG][Proc: 0]generate_distributed_matrix: 149.767 [ms]
[OGL LOG][Proc: 0]init_precond: 0.045 [ms]
[OGL LOG][Proc: 0]generate_solver: 0.002 [ms]
[OGL LOG][Proc: 0]solve: 9217.36 [ms]
[OGL LOG][Proc: 0]copy_x_back: 48.906 [ms]
[OGL LOG][lduLduBase.H:380] 
Statistics:
	Time per iteration: 4140 [mu s]
	Time per iteration and DOF: 0.153333 [ns]
	Retrieve results bandwith 2.208000 [GByte/s]
nonecudaGKOCG:  Solving for p, Initial residual = 0.059656, Final residual = 7.69439e-05, No Iterations 2226
linear solve p 9868526
time step continuity errors : sum local = 2.37926e-10, global = -1.19688e-22, cumulative = -1.0666e-22
ExecutionTime = 966.59 s  ClockTime = 970 s

Time = 0.000233333

Courant Number mean: 0.00352961 max: 0.0925278
DILUPBiCGStab:  Solving for Ux, Initial residual = 0.0240144, Final residual = 6.42242e-06, No Iterations 5
DILUPBiCGStab:  Solving for Uy, Initial residual = 0.0403755, Final residual = 3.58108e-06, No Iterations 5
DILUPBiCGStab:  Solving for Uz, Initial residual = 0.0654818, Final residual = 1.39438e-05, No Iterations 5
linear solve U 28987618
[OGL LOG][Proc: 0]global_index_init: 0.008 [ms]
[OGL LOG][Proc: 0]global_index_init: 0 [ms]
[OGL LOG][Proc: 0]update_host_matrix_data: 331.334 [ms]
[OGL LOG][Proc: 0]gather_global_matrix: 0 [ms]
[OGL LOG][Proc: 0]generate_distributed_matrix: 162.389 [ms]
[OGL LOG][Proc: 0]init_precond: 0.035 [ms]
[OGL LOG][Proc: 0]generate_solver: 0.002 [ms]
[OGL LOG][Proc: 0]solve: 9213.38 [ms]
[OGL LOG][Proc: 0]copy_x_back: 49.597 [ms]
[OGL LOG][lduLduBase.H:380] 
Statistics:
	Time per iteration: 4138 [mu s]
	Time per iteration and DOF: 0.153259 [ns]
	Retrieve results bandwith 2.177000 [GByte/s]
nonecudaGKOCG:  Solving for p, Initial residual = 0.0466118, Final residual = 8.06424e-05, No Iterations 2226
linear solve p 9877528
time step continuity errors : sum local = 2.46015e-10, global = -1.50955e-24, cumulative = -1.0817e-22
[OGL LOG][Proc: 0]global_index_init: 0.015 [ms]
[OGL LOG][Proc: 0]global_index_init: 0 [ms]
[OGL LOG][Proc: 0]update_host_matrix_data: 331.469 [ms]
[OGL LOG][Proc: 0]gather_global_matrix: 0 [ms]
[OGL LOG][Proc: 0]generate_distributed_matrix: 158.804 [ms]
[OGL LOG][Proc: 0]init_precond: 0.034 [ms]
[OGL LOG][Proc: 0]generate_solver: 0.002 [ms]
[OGL LOG][Proc: 0]solve: 9203.69 [ms]
[OGL LOG][Proc: 0]copy_x_back: 50.479 [ms]
[OGL LOG][lduLduBase.H:380] 
Statistics:
	Time per iteration: 4134 [mu s]
	Time per iteration and DOF: 0.153111 [ns]
	Retrieve results bandwith 2.139000 [GByte/s]
nonecudaGKOCG:  Solving for p, Initial residual = 0.0398505, Final residual = 7.5127e-05, No Iterations 2226
linear solve p 9857551
time step continuity errors : sum local = 2.29325e-10, global = -1.45491e-22, cumulative = -2.53661e-22
ExecutionTime = 1027.34 s  ClockTime = 1031 s

Time = 0.000266667

Courant Number mean: 0.0037927 max: 0.0931233
DILUPBiCGStab:  Solving for Ux, Initial residual = 0.0207913, Final residual = 5.4356e-06, No Iterations 5
DILUPBiCGStab:  Solving for Uy, Initial residual = 0.0342865, Final residual = 1.84458e-06, No Iterations 5
DILUPBiCGStab:  Solving for Uz, Initial residual = 0.0574127, Final residual = 9.46032e-06, No Iterations 5
linear solve U 28942625
[OGL LOG][Proc: 0]global_index_init: 0.006 [ms]
[OGL LOG][Proc: 0]global_index_init: 0.003 [ms]
[OGL LOG][Proc: 0]update_host_matrix_data: 328.297 [ms]
[OGL LOG][Proc: 0]gather_global_matrix: 0 [ms]
[OGL LOG][Proc: 0]generate_distributed_matrix: 158.835 [ms]
[OGL LOG][Proc: 0]init_precond: 0.041 [ms]
[OGL LOG][Proc: 0]generate_solver: 0.002 [ms]
[OGL LOG][Proc: 0]solve: 9219.53 [ms]
[OGL LOG][Proc: 0]copy_x_back: 49.244 [ms]
[OGL LOG][lduLduBase.H:380] 
Statistics:
	Time per iteration: 4141 [mu s]
	Time per iteration and DOF: 0.153370 [ns]
	Retrieve results bandwith 2.193000 [GByte/s]
nonecudaGKOCG:  Solving for p, Initial residual = 0.0316542, Final residual = 3.25833e-05, No Iterations 2226
linear solve p 9888976
time step continuity errors : sum local = 9.88478e-11, global = 1.36258e-22, cumulative = -1.17402e-22
[OGL LOG][Proc: 0]global_index_init: 0.008 [ms]
[OGL LOG][Proc: 0]global_index_init: 0 [ms]
[OGL LOG][Proc: 0]update_host_matrix_data: 330.243 [ms]
[OGL LOG][Proc: 0]gather_global_matrix: 0 [ms]
[OGL LOG][Proc: 0]generate_distributed_matrix: 171.018 [ms]
[OGL LOG][Proc: 0]init_precond: 0.035 [ms]
[OGL LOG][Proc: 0]generate_solver: 0.002 [ms]
[OGL LOG][Proc: 0]solve: 9247.58 [ms]
[OGL LOG][Proc: 0]copy_x_back: 47.971 [ms]
[OGL LOG][lduLduBase.H:380] 
Statistics:
	Time per iteration: 4154 [mu s]
	Time per iteration and DOF: 0.153852 [ns]
	Retrieve results bandwith 2.251000 [GByte/s]
nonecudaGKOCG:  Solving for p, Initial residual = 0.0277432, Final residual = 2.13185e-05, No Iterations 2226
linear solve p 9899730
time step continuity errors : sum local = 6.47883e-11, global = -7.56354e-23, cumulative = -1.93037e-22
ExecutionTime = 1088.1 s  ClockTime = 1092 s

Time = 0.0003

Courant Number mean: 0.00403253 max: 0.0935902
DILUPBiCGStab:  Solving for Ux, Initial residual = 0.018355, Final residual = 4.39495e-06, No Iterations 5
DILUPBiCGStab:  Solving for Uy, Initial residual = 0.0297915, Final residual = 1.90062e-06, No Iterations 5
DILUPBiCGStab:  Solving for Uz, Initial residual = 0.0514901, Final residual = 6.7405e-06, No Iterations 5
linear solve U 28978434
[OGL LOG][Proc: 0]global_index_init: 0.008 [ms]
[OGL LOG][Proc: 0]global_index_init: 0 [ms]
[OGL LOG][Proc: 0]update_host_matrix_data: 329.238 [ms]
[OGL LOG][Proc: 0]gather_global_matrix: 0 [ms]
[OGL LOG][Proc: 0]generate_distributed_matrix: 157.861 [ms]
[OGL LOG][Proc: 0]init_precond: 0.04 [ms]
[OGL LOG][Proc: 0]generate_solver: 0.002 [ms]
[OGL LOG][Proc: 0]solve: 9222.63 [ms]
[OGL LOG][Proc: 0]copy_x_back: 48.725 [ms]
[OGL LOG][lduLduBase.H:380] 
Statistics:
	Time per iteration: 4143 [mu s]
	Time per iteration and DOF: 0.153444 [ns]
	Retrieve results bandwith 2.216000 [GByte/s]
nonecudaGKOCG:  Solving for p, Initial residual = 0.0246346, Final residual = 5.61697e-05, No Iterations 2226
linear solve p 9878167
time step continuity errors : sum local = 1.70387e-10, global = -1.20821e-22, cumulative = -3.13859e-22
[OGL LOG][Proc: 0]global_index_init: 0.008 [ms]
[OGL LOG][Proc: 0]global_index_init: 0.001 [ms]
[OGL LOG][Proc: 0]update_host_matrix_data: 328.879 [ms]
[OGL LOG][Proc: 0]gather_global_matrix: 0 [ms]
[OGL LOG][Proc: 0]generate_distributed_matrix: 155.88 [ms]
[OGL LOG][Proc: 0]init_precond: 0.045 [ms]
[OGL LOG][Proc: 0]generate_solver: 0.002 [ms]
[OGL LOG][Proc: 0]solve: 9206.18 [ms]
[OGL LOG][Proc: 0]copy_x_back: 49.381 [ms]
[OGL LOG][lduLduBase.H:380] 
Statistics:
	Time per iteration: 4135 [mu s]
	Time per iteration and DOF: 0.153148 [ns]
	Retrieve results bandwith 2.187000 [GByte/s]
nonecudaGKOCG:  Solving for p, Initial residual = 0.0220145, Final residual = 4.85506e-05, No Iterations 2226
linear solve p 9845250
time step continuity errors : sum local = 1.47403e-10, global = -2.52747e-23, cumulative = -3.39133e-22
ExecutionTime = 1148.77 s  ClockTime = 1152 s

Time = 0.000333333

Courant Number mean: 0.00425379 max: 0.0939692
DILUPBiCGStab:  Solving for Ux, Initial residual = 0.0164415, Final residual = 3.58801e-06, No Iterations 5
DILUPBiCGStab:  Solving for Uy, Initial residual = 0.0263214, Final residual = 1.28359e-06, No Iterations 5
DILUPBiCGStab:  Solving for Uz, Initial residual = 0.0462984, Final residual = 5.08244e-06, No Iterations 5
linear solve U 29012056
[OGL LOG][Proc: 0]global_index_init: 0.007 [ms]
[OGL LOG][Proc: 0]global_index_init: 0 [ms]
[OGL LOG][Proc: 0]update_host_matrix_data: 329.638 [ms]
[OGL LOG][Proc: 0]gather_global_matrix: 0 [ms]
[OGL LOG][Proc: 0]generate_distributed_matrix: 158.979 [ms]
[OGL LOG][Proc: 0]init_precond: 0.041 [ms]
[OGL LOG][Proc: 0]generate_solver: 0.003 [ms]
[OGL LOG][Proc: 0]solve: 9220.38 [ms]
[OGL LOG][Proc: 0]copy_x_back: 49.712 [ms]
[OGL LOG][lduLduBase.H:380] 
Statistics:
	Time per iteration: 4142 [mu s]
	Time per iteration and DOF: 0.153407 [ns]
	Retrieve results bandwith 2.172000 [GByte/s]
nonecudaGKOCG:  Solving for p, Initial residual = 0.0190823, Final residual = 4.18295e-05, No Iterations 2226
linear solve p 9864615
time step continuity errors : sum local = 1.2691e-10, global = -9.12225e-23, cumulative = -4.30356e-22
[OGL LOG][Proc: 0]global_index_init: 0.01 [ms]
[OGL LOG][Proc: 0]global_index_init: 0 [ms]
[OGL LOG][Proc: 0]update_host_matrix_data: 329.052 [ms]
[OGL LOG][Proc: 0]gather_global_matrix: 0 [ms]
[OGL LOG][Proc: 0]generate_distributed_matrix: 150.299 [ms]
[OGL LOG][Proc: 0]init_precond: 0.039 [ms]
[OGL LOG][Proc: 0]generate_solver: 0.002 [ms]
[OGL LOG][Proc: 0]solve: 9237.51 [ms]
[OGL LOG][Proc: 0]copy_x_back: 48.97 [ms]
[OGL LOG][lduLduBase.H:380] 
Statistics:
	Time per iteration: 4149 [mu s]
	Time per iteration and DOF: 0.153667 [ns]
	Retrieve results bandwith 2.205000 [GByte/s]
nonecudaGKOCG:  Solving for p, Initial residual = 0.0173861, Final residual = 3.39525e-05, No Iterations 2226
linear solve p 9869628
time step continuity errors : sum local = 1.03123e-10, global = 1.19949e-22, cumulative = -3.10407e-22
ExecutionTime = 1209.53 s  ClockTime = 1213 s

Time = 0.000366667

Courant Number mean: 0.00445955 max: 0.0942846
DILUPBiCGStab:  Solving for Ux, Initial residual = 0.0148961, Final residual = 2.93259e-06, No Iterations 5
DILUPBiCGStab:  Solving for Uy, Initial residual = 0.0235712, Final residual = 1.20861e-06, No Iterations 5
DILUPBiCGStab:  Solving for Uz, Initial residual = 0.0421992, Final residual = 3.9775e-06, No Iterations 5
linear solve U 28877747
[OGL LOG][Proc: 0]global_index_init: 0.009 [ms]
[OGL LOG][Proc: 0]global_index_init: 0 [ms]
[OGL LOG][Proc: 0]update_host_matrix_data: 329.078 [ms]
[OGL LOG][Proc: 0]gather_global_matrix: 0 [ms]
[OGL LOG][Proc: 0]generate_distributed_matrix: 158.093 [ms]
[OGL LOG][Proc: 0]init_precond: 0.04 [ms]
[OGL LOG][Proc: 0]generate_solver: 0.002 [ms]
[OGL LOG][Proc: 0]solve: 9234.24 [ms]
[OGL LOG][Proc: 0]copy_x_back: 49.416 [ms]
[OGL LOG][lduLduBase.H:380] 
Statistics:
	Time per iteration: 4148 [mu s]
	Time per iteration and DOF: 0.153630 [ns]
	Retrieve results bandwith 2.185000 [GByte/s]
nonecudaGKOCG:  Solving for p, Initial residual = 0.0162385, Final residual = 4.15007e-05, No Iterations 2226
linear solve p 9891354
time step continuity errors : sum local = 1.25989e-10, global = 1.27189e-22, cumulative = -1.83217e-22
[OGL LOG][Proc: 0]global_index_init: 0.007 [ms]
[OGL LOG][Proc: 0]global_index_init: 0 [ms]
[OGL LOG][Proc: 0]update_host_matrix_data: 328.392 [ms]
[OGL LOG][Proc: 0]gather_global_matrix: 0 [ms]
[OGL LOG][Proc: 0]generate_distributed_matrix: 158.04 [ms]
[OGL LOG][Proc: 0]init_precond: 0.041 [ms]
[OGL LOG][Proc: 0]generate_solver: 0.002 [ms]
[OGL LOG][Proc: 0]solve: 9208.28 [ms]
[OGL LOG][Proc: 0]copy_x_back: 49.598 [ms]
[OGL LOG][lduLduBase.H:380] 
Statistics:
	Time per iteration: 4136 [mu s]
	Time per iteration and DOF: 0.153185 [ns]
	Retrieve results bandwith 2.177000 [GByte/s]
nonecudaGKOCG:  Solving for p, Initial residual = 0.0148732, Final residual = 3.37185e-05, No Iterations 2226
linear solve p 9849263
time step continuity errors : sum local = 1.0244e-10, global = -9.76503e-23, cumulative = -2.80867e-22
ExecutionTime = 1270.1 s  ClockTime = 1274 s

Time = 0.0004

Courant Number mean: 0.00465211 max: 0.0945525
DILUPBiCGStab:  Solving for Ux, Initial residual = 0.0136208, Final residual = 2.42341e-06, No Iterations 5
DILUPBiCGStab:  Solving for Uy, Initial residual = 0.0213315, Final residual = 9.48106e-07, No Iterations 5
DILUPBiCGStab:  Solving for Uz, Initial residual = 0.0386701, Final residual = 3.21341e-06, No Iterations 5
linear solve U 28998838
[OGL LOG][Proc: 0]global_index_init: 0.008 [ms]
[OGL LOG][Proc: 0]global_index_init: 0 [ms]
[OGL LOG][Proc: 0]update_host_matrix_data: 328.544 [ms]
[OGL LOG][Proc: 0]gather_global_matrix: 0 [ms]
[OGL LOG][Proc: 0]generate_distributed_matrix: 159.421 [ms]
[OGL LOG][Proc: 0]init_precond: 0.034 [ms]
[OGL LOG][Proc: 0]generate_solver: 0.002 [ms]
[OGL LOG][Proc: 0]solve: 9225.03 [ms]
[OGL LOG][Proc: 0]copy_x_back: 49.45 [ms]
[OGL LOG][lduLduBase.H:380] 
Statistics:
	Time per iteration: 4144 [mu s]
	Time per iteration and DOF: 0.153481 [ns]
	Retrieve results bandwith 2.184000 [GByte/s]
nonecudaGKOCG:  Solving for p, Initial residual = 0.0138348, Final residual = 3.80209e-05, No Iterations 2226
linear solve p 9867522
time step continuity errors : sum local = 1.15538e-10, global = -1.57989e-22, cumulative = -4.38857e-22
[OGL LOG][Proc: 0]global_index_init: 0.006 [ms]
[OGL LOG][Proc: 0]global_index_init: 0 [ms]
[OGL LOG][Proc: 0]update_host_matrix_data: 329.819 [ms]
[OGL LOG][Proc: 0]gather_global_matrix: 0 [ms]
[OGL LOG][Proc: 0]generate_distributed_matrix: 150.422 [ms]
[OGL LOG][Proc: 0]init_precond: 0.041 [ms]
[OGL LOG][Proc: 0]generate_solver: 0.002 [ms]
[OGL LOG][Proc: 0]solve: 9219.68 [ms]
[OGL LOG][Proc: 0]copy_x_back: 49.449 [ms]
[OGL LOG][lduLduBase.H:380] 
Statistics:
	Time per iteration: 4141 [mu s]
	Time per iteration and DOF: 0.153370 [ns]
	Retrieve results bandwith 2.184000 [GByte/s]
nonecudaGKOCG:  Solving for p, Initial residual = 0.0128165, Final residual = 3.04616e-05, No Iterations 2226
linear solve p 9838558
time step continuity errors : sum local = 9.26375e-11, global = -1.58338e-22, cumulative = -5.97195e-22
ExecutionTime = 1330.77 s  ClockTime = 1335 s

Time = 0.000433333

Courant Number mean: 0.00483369 max: 0.0947836
DILUPBiCGStab:  Solving for Ux, Initial residual = 0.0125486, Final residual = 2.02039e-06, No Iterations 5
DILUPBiCGStab:  Solving for Uy, Initial residual = 0.0194761, Final residual = 8.56311e-07, No Iterations 5
DILUPBiCGStab:  Solving for Uz, Initial residual = 0.0356815, Final residual = 2.65224e-06, No Iterations 5
linear solve U 28858835
[OGL LOG][Proc: 0]global_index_init: 0.008 [ms]
[OGL LOG][Proc: 0]global_index_init: 0 [ms]
[OGL LOG][Proc: 0]update_host_matrix_data: 329.267 [ms]
[OGL LOG][Proc: 0]gather_global_matrix: 0 [ms]
[OGL LOG][Proc: 0]generate_distributed_matrix: 158.928 [ms]
[OGL LOG][Proc: 0]init_precond: 0.042 [ms]
[OGL LOG][Proc: 0]generate_solver: 0.002 [ms]
[OGL LOG][Proc: 0]solve: 9207.99 [ms]
[OGL LOG][Proc: 0]copy_x_back: 49.25 [ms]
[OGL LOG][lduLduBase.H:380] 
Statistics:
	Time per iteration: 4136 [mu s]
	Time per iteration and DOF: 0.153185 [ns]
	Retrieve results bandwith 2.192000 [GByte/s]
nonecudaGKOCG:  Solving for p, Initial residual = 0.0121525, Final residual = 3.16816e-05, No Iterations 2226
linear solve p 9876514
time step continuity errors : sum local = 9.6343e-11, global = -7.23332e-23, cumulative = -6.69528e-22
[OGL LOG][Proc: 0]global_index_init: 0.006 [ms]
[OGL LOG][Proc: 0]global_index_init: 0 [ms]
[OGL LOG][Proc: 0]update_host_matrix_data: 331.331 [ms]
[OGL LOG][Proc: 0]gather_global_matrix: 0 [ms]
[OGL LOG][Proc: 0]generate_distributed_matrix: 169.517 [ms]
[OGL LOG][Proc: 0]init_precond: 0.041 [ms]
[OGL LOG][Proc: 0]generate_solver: 0.002 [ms]
[OGL LOG][Proc: 0]solve: 8880.38 [ms]
[OGL LOG][Proc: 0]copy_x_back: 47.921 [ms]
[OGL LOG][lduLduBase.H:380] 
Statistics:
	Time per iteration: 4155 [mu s]
	Time per iteration and DOF: 0.153889 [ns]
	Retrieve results bandwith 2.253000 [GByte/s]
nonecudaGKOCG:  Solving for p, Initial residual = 0.0112924, Final residual = 9.43349e-05, No Iterations 2137
linear solve p 9532390
time step continuity errors : sum local = 2.87048e-10, global = -1.695e-22, cumulative = -8.39028e-22
ExecutionTime = 1391.05 s  ClockTime = 1395 s

Time = 0.000466667

Courant Number mean: 0.00500526 max: 0.0949858
DILUPBiCGStab:  Solving for Ux, Initial residual = 0.0116341, Final residual = 1.70539e-06, No Iterations 5
DILUPBiCGStab:  Solving for Uy, Initial residual = 0.0179116, Final residual = 7.20692e-07, No Iterations 5
DILUPBiCGStab:  Solving for Uz, Initial residual = 0.033042, Final residual = 2.22835e-06, No Iterations 5
linear solve U 28971104
[OGL LOG][Proc: 0]global_index_init: 0.01 [ms]
[OGL LOG][Proc: 0]global_index_init: 0 [ms]
[OGL LOG][Proc: 0]update_host_matrix_data: 330.021 [ms]
[OGL LOG][Proc: 0]gather_global_matrix: 0 [ms]
[OGL LOG][Proc: 0]generate_distributed_matrix: 158.717 [ms]
[OGL LOG][Proc: 0]init_precond: 0.036 [ms]
[OGL LOG][Proc: 0]generate_solver: 0.002 [ms]
[OGL LOG][Proc: 0]solve: 8846.05 [ms]
[OGL LOG][Proc: 0]copy_x_back: 48.393 [ms]
[OGL LOG][lduLduBase.H:380] 
Statistics:
	Time per iteration: 4160 [mu s]
	Time per iteration and DOF: 0.154074 [ns]
	Retrieve results bandwith 2.231000 [GByte/s]
nonecudaGKOCG:  Solving for p, Initial residual = 0.0110007, Final residual = 8.46563e-05, No Iterations 2126
linear solve p 9503062
time step continuity errors : sum local = 2.57718e-10, global = 1.26608e-25, cumulative = -8.38901e-22
[OGL LOG][Proc: 0]global_index_init: 0.007 [ms]
[OGL LOG][Proc: 0]global_index_init: 0 [ms]
[OGL LOG][Proc: 0]update_host_matrix_data: 329.516 [ms]
[OGL LOG][Proc: 0]gather_global_matrix: 0 [ms]
[OGL LOG][Proc: 0]generate_distributed_matrix: 155.548 [ms]
[OGL LOG][Proc: 0]init_precond: 0.044 [ms]
[OGL LOG][Proc: 0]generate_solver: 0.002 [ms]
[OGL LOG][Proc: 0]solve: 8831.55 [ms]
[OGL LOG][Proc: 0]copy_x_back: 48.97 [ms]
[OGL LOG][lduLduBase.H:380] 
Statistics:
	Time per iteration: 4154 [mu s]
	Time per iteration and DOF: 0.153852 [ns]
	Retrieve results bandwith 2.205000 [GByte/s]
nonecudaGKOCG:  Solving for p, Initial residual = 0.0102469, Final residual = 7.34926e-05, No Iterations 2126
linear solve p 9470442
time step continuity errors : sum local = 2.23856e-10, global = -2.03441e-22, cumulative = -1.04234e-21
ExecutionTime = 1451 s  ClockTime = 1455 s

Time = 0.0005

Courant Number mean: 0.00516847 max: 0.0951645
DILUPBiCGStab:  Solving for Ux, Initial residual = 0.010844, Final residual = 1.45558e-06, No Iterations 5
DILUPBiCGStab:  Solving for Uy, Initial residual = 0.016576, Final residual = 6.43553e-07, No Iterations 5
DILUPBiCGStab:  Solving for Uz, Initial residual = 0.0307477, Final residual = 1.90205e-06, No Iterations 5
linear solve U 28981746
[OGL LOG][Proc: 0]global_index_init: 0.007 [ms]
[OGL LOG][Proc: 0]global_index_init: 0 [ms]
[OGL LOG][Proc: 0]update_host_matrix_data: 328.819 [ms]
[OGL LOG][Proc: 0]gather_global_matrix: 0 [ms]
[OGL LOG][Proc: 0]generate_distributed_matrix: 159.561 [ms]
[OGL LOG][Proc: 0]init_precond: 0.037 [ms]
[OGL LOG][Proc: 0]generate_solver: 0.002 [ms]
[OGL LOG][Proc: 0]solve: 8816.72 [ms]
[OGL LOG][Proc: 0]copy_x_back: 49.397 [ms]
[OGL LOG][lduLduBase.H:380] 
Statistics:
	Time per iteration: 4147 [mu s]
	Time per iteration and DOF: 0.153593 [ns]
	Retrieve results bandwith 2.186000 [GByte/s]
nonecudaGKOCG:  Solving for p, Initial residual = 0.0101311, Final residual = 6.71976e-05, No Iterations 2126
linear solve p 9459751
time step continuity errors : sum local = 2.0475e-10, global = -8.5478e-23, cumulative = -1.12782e-21
[OGL LOG][Proc: 0]global_index_init: 0.013 [ms]
[OGL LOG][Proc: 0]global_index_init: 0.001 [ms]
[OGL LOG][Proc: 0]update_host_matrix_data: 328.666 [ms]
[OGL LOG][Proc: 0]gather_global_matrix: 0 [ms]
[OGL LOG][Proc: 0]generate_distributed_matrix: 150.904 [ms]
[OGL LOG][Proc: 0]init_precond: 0.038 [ms]
[OGL LOG][Proc: 0]generate_solver: 0.001 [ms]
[OGL LOG][Proc: 0]solve: 8820.75 [ms]
[OGL LOG][Proc: 0]copy_x_back: 48.377 [ms]
[OGL LOG][lduLduBase.H:380] 
Statistics:
	Time per iteration: 4148 [mu s]
	Time per iteration and DOF: 0.153630 [ns]
	Retrieve results bandwith 2.232000 [GByte/s]
nonecudaGKOCG:  Solving for p, Initial residual = 0.00946599, Final residual = 4.94619e-05, No Iterations 2126
linear solve p 9463075
time step continuity errors : sum local = 1.50781e-10, global = -8.64353e-23, cumulative = -1.21426e-21
ExecutionTime = 1510.9 s  ClockTime = 1515 s

Time = 0.000533333

Courant Number mean: 0.0053238 max: 0.095324
DILUPBiCGStab:  Solving for Ux, Initial residual = 0.0101544, Final residual = 1.25504e-06, No Iterations 5
DILUPBiCGStab:  Solving for Uy, Initial residual = 0.0154218, Final residual = 5.60457e-07, No Iterations 5
DILUPBiCGStab:  Solving for Uz, Initial residual = 0.0288635, Final residual = 1.64546e-06, No Iterations 5
linear solve U 28867287
[OGL LOG][Proc: 0]global_index_init: 0.011 [ms]
[OGL LOG][Proc: 0]global_index_init: 0 [ms]
[OGL LOG][Proc: 0]update_host_matrix_data: 329.369 [ms]
[OGL LOG][Proc: 0]gather_global_matrix: 0 [ms]
[OGL LOG][Proc: 0]generate_distributed_matrix: 159.036 [ms]
[OGL LOG][Proc: 0]init_precond: 0.04 [ms]
[OGL LOG][Proc: 0]generate_solver: 0.002 [ms]
[OGL LOG][Proc: 0]solve: 8855.77 [ms]
[OGL LOG][Proc: 0]copy_x_back: 49.044 [ms]
[OGL LOG][lduLduBase.H:380] 
Statistics:
	Time per iteration: 4165 [mu s]
	Time per iteration and DOF: 0.154259 [ns]
	Retrieve results bandwith 2.202000 [GByte/s]
nonecudaGKOCG:  Solving for p, Initial residual = 0.00901732, Final residual = 8.03515e-05, No Iterations 2126
linear solve p 9514186
time step continuity errors : sum local = 2.44951e-10, global = -3.47503e-22, cumulative = -1.56176e-21
[OGL LOG][Proc: 0]global_index_init: 0.007 [ms]
[OGL LOG][Proc: 0]global_index_init: 0 [ms]
[OGL LOG][Proc: 0]update_host_matrix_data: 330.706 [ms]
[OGL LOG][Proc: 0]gather_global_matrix: 0 [ms]
[OGL LOG][Proc: 0]generate_distributed_matrix: 155.837 [ms]
[OGL LOG][Proc: 0]init_precond: 0.043 [ms]
[OGL LOG][Proc: 0]generate_solver: 0.002 [ms]
[OGL LOG][Proc: 0]solve: 8825.46 [ms]
[OGL LOG][Proc: 0]copy_x_back: 48.523 [ms]
[OGL LOG][lduLduBase.H:380] 
Statistics:
	Time per iteration: 4151 [mu s]
	Time per iteration and DOF: 0.153741 [ns]
	Retrieve results bandwith 2.225000 [GByte/s]
nonecudaGKOCG:  Solving for p, Initial residual = 0.0084515, Final residual = 5.50602e-05, No Iterations 2126
linear solve p 9465247
time step continuity errors : sum local = 1.6793e-10, global = 5.7443e-23, cumulative = -1.50432e-21
ExecutionTime = 1570.76 s  ClockTime = 1575 s

Time = 0.000566667

Courant Number mean: 0.00547251 max: 0.0954674
DILUPBiCGStab:  Solving for Ux, Initial residual = 0.00954756, Final residual = 1.09301e-06, No Iterations 5
DILUPBiCGStab:  Solving for Uy, Initial residual = 0.0144148, Final residual = 5.01034e-07, No Iterations 5
[...]
time step continuity errors : sum local = 6.90248e-10, global = 5.46779e-22, cumulative = 2.34405e-20
ExecutionTime = 146.81 s  ClockTime = 149 s

End

Finalising parallel run
================================================================================
hash: 6036ff1bd07d6fba9f31ac0b146c84f6
/*---------------------------------------------------------------------------*\
| =========                 |                                                 |
| \\      /  F ield         | OpenFOAM: The Open Source CFD Toolbox           |
|  \\    /   O peration     | Version:  2112                                  |
|   \\  /    A nd           | Website:  www.openfoam.com                      |
|    \\/     M anipulation  |                                                 |
\*---------------------------------------------------------------------------*/
Build  : d44c8318f0-20220111 OPENFOAM=2112 version=v2112
Arch   : "LSB;label=32;scalar=64"
Exec   : icoFoam -parallel
Date   : Jun 26 2022
Time   : 21:22:03
Host   : hkn1640.localdomain
PID    : 3317822
I/O    : uncollated
Case   : /hkfs/work/workspace/scratch/eq4036-lidDrivenCavity/simple/mesh/100/matrix_solver/CG_NoPrecond_DefaultOF/mpiRank_of/76/base
nProcs : 76
Hosts  :
(
    (hkn1640.localdomain 76)
)
Pstream initialized with:
    floatTransfer      : 0
    nProcsSimpleSum    : 0
    commsType          : nonBlocking
    polling iterations : 0
trapFpe: Floating point exception trapping enabled (FOAM_SIGFPE).
fileModificationChecking : Monitoring run-time modified files using timeStampMaster (fileModificationSkew 5, maxFileModificationPolls 20)
allowSystemOperations : Allowing user-supplied system call operations

// * * * * * * * * * * * * * * * * * * * * * * * * * * * * * * * * * * * * * //
Create time

Create mesh for time = 0


PISO: Operating solver in PISO mode

Reading transportProperties

Reading field p

Reading field U

Reading/calculating face flux field phi


Starting time loop

Time = 0.0001

Courant Number mean: 0 max: 0
DILUPBiCGStab:  Solving for Ux, Initial residual = 1, Final residual = 4.24195e-05, No Iterations 5
DILUPBiCGStab:  Solving for Uy:  solution singularity
DILUPBiCGStab:  Solving for Uz:  solution singularity
linear solve U 11542
nonePCG:  Solving for p, Initial residual = 1, Final residual = 9.71466e-05, No Iterations 794
linear solve p 173971
time step continuity errors : sum local = 1.71636e-09, global = -3.44123e-22, cumulative = -3.44123e-22
nonePCG:  Solving for p, Initial residual = 0.559957, Final residual = 9.81636e-05, No Iterations 777
linear solve p 168741
time step continuity errors : sum local = 2.68518e-09, global = -2.25126e-22, cumulative = -5.69249e-22
ExecutionTime = 0.73 s  ClockTime = 1 s

Time = 0.0002

Courant Number mean: 0.00201328 max: 0.0540371
DILUPBiCGStab:  Solving for Ux, Initial residual = 0.216463, Final residual = 2.0656e-05, No Iterations 5
DILUPBiCGStab:  Solving for Uy, Initial residual = 0.309947, Final residual = 2.07625e-05, No Iterations 5
DILUPBiCGStab:  Solving for Uz, Initial residual = 0.981322, Final residual = 7.16958e-05, No Iterations 5
linear solve U 17208
nonePCG:  Solving for p, Initial residual = 0.381695, Final residual = 9.16596e-05, No Iterations 769
linear solve p 171451
time step continuity errors : sum local = 2.39727e-09, global = 5.80541e-22, cumulative = 1.12923e-23
nonePCG:  Solving for p, Initial residual = 0.284799, Final residual = 9.70455e-05, No Iterations 764
linear solve p 170645
time step continuity errors : sum local = 2.65935e-09, global = -4.11526e-22, cumulative = -4.00234e-22
ExecutionTime = 1.12 s  ClockTime = 2 s

Time = 0.0003

Courant Number mean: 0.00317975 max: 0.0721773
DILUPBiCGStab:  Solving for Ux, Initial residual = 0.0963259, Final residual = 8.5543e-06, No Iterations 5
DILUPBiCGStab:  Solving for Uy, Initial residual = 0.140695, Final residual = 7.16239e-06, No Iterations 5
DILUPBiCGStab:  Solving for Uz, Initial residual = 0.205729, Final residual = 1.73224e-05, No Iterations 5
linear solve U 17116
nonePCG:  Solving for p, Initial residual = 0.128568, Final residual = 9.73992e-05, No Iterations 743
linear solve p 166711
time step continuity errors : sum local = 2.29503e-09, global = -1.75125e-21, cumulative = -2.15149e-21
nonePCG:  Solving for p, Initial residual = 0.0996026, Final residual = 9.4776e-05, No Iterations 737
linear solve p 156696
time step continuity errors : sum local = 2.26223e-09, global = -8.1734e-22, cumulative = -2.96883e-21
ExecutionTime = 1.49 s  ClockTime = 2 s

Time = 0.0004

Courant Number mean: 0.00397979 max: 0.0793325
DILUPBiCGStab:  Solving for Ux, Initial residual = 0.0593654, Final residual = 4.07886e-06, No Iterations 5
DILUPBiCGStab:  Solving for Uy, Initial residual = 0.0868106, Final residual = 3.52007e-06, No Iterations 5
DILUPBiCGStab:  Solving for Uz, Initial residual = 0.127109, Final residual = 6.65525e-06, No Iterations 5
linear solve U 16921
nonePCG:  Solving for p, Initial residual = 0.0642989, Final residual = 9.70822e-05, No Iterations 729
linear solve p 178112
time step continuity errors : sum local = 2.25082e-09, global = -1.59122e-21, cumulative = -4.56004e-21
nonePCG:  Solving for p, Initial residual = 0.0497339, Final residual = 9.73541e-05, No Iterations 720
linear solve p 153240
time step continuity errors : sum local = 2.29218e-09, global = -1.63742e-22, cumulative = -4.72378e-21
ExecutionTime = 1.86 s  ClockTime = 3 s

Time = 0.0005

Courant Number mean: 0.00460123 max: 0.082885
DILUPBiCGStab:  Solving for Ux, Initial residual = 0.0428603, Final residual = 1.60649e-06, No Iterations 5
DILUPBiCGStab:  Solving for Uy, Initial residual = 0.0618663, Final residual = 2.05086e-06, No Iterations 5
DILUPBiCGStab:  Solving for Uz, Initial residual = 0.0971584, Final residual = 4.1949e-06, No Iterations 5
linear solve U 16879
nonePCG:  Solving for p, Initial residual = 0.0389457, Final residual = 9.89917e-05, No Iterations 402
linear solve p 88480
time step continuity errors : sum local = 2.66536e-09, global = -2.24884e-21, cumulative = -6.97262e-21
nonePCG:  Solving for p, Initial residual = 0.0305765, Final residual = 9.85587e-05, No Iterations 339
linear solve p 83290
time step continuity errors : sum local = 2.4638e-09, global = -3.19083e-21, cumulative = -1.01634e-20
ExecutionTime = 2.07 s  ClockTime = 3 s

Time = 0.0006

Courant Number mean: 0.00511858 max: 0.0850107
DILUPBiCGStab:  Solving for Ux, Initial residual = 0.0336705, Final residual = 7.89158e-07, No Iterations 5
DILUPBiCGStab:  Solving for Uy, Initial residual = 0.0480502, Final residual = 1.39741e-06, No Iterations 5
DILUPBiCGStab:  Solving for Uz, Initial residual = 0.0802629, Final residual = 2.98583e-06, No Iterations 5
linear solve U 17622
nonePCG:  Solving for p, Initial residual = 0.0269247, Final residual = 9.74871e-05, No Iterations 341
linear solve p 80413
time step continuity errors : sum local = 2.54664e-09, global = -6.42792e-22, cumulative = -1.08062e-20
nonePCG:  Solving for p, Initial residual = 0.0213648, Final residual = 9.98096e-05, No Iterations 311
linear solve p 79553
time step continuity errors : sum local = 2.52661e-09, global = -1.73114e-21, cumulative = -1.25374e-20
ExecutionTime = 2.28 s  ClockTime = 3 s

Time = 0.0007

Courant Number mean: 0.00556491 max: 0.0864549
DILUPBiCGStab:  Solving for Ux, Initial residual = 0.027767, Final residual = 5.42585e-07, No Iterations 5
DILUPBiCGStab:  Solving for Uy, Initial residual = 0.0392382, Final residual = 1.07543e-06, No Iterations 5
DILUPBiCGStab:  Solving for Uz, Initial residual = 0.0677447, Final residual = 2.29915e-06, No Iterations 5
linear solve U 18168
nonePCG:  Solving for p, Initial residual = 0.0207712, Final residual = 9.71831e-05, No Iterations 301
linear solve p 64435
time step continuity errors : sum local = 2.59552e-09, global = -8.36486e-22, cumulative = -1.33739e-20
nonePCG:  Solving for p, Initial residual = 0.0165057, Final residual = 9.73691e-05, No Iterations 293
linear solve p 63246
time step continuity errors : sum local = 2.51882e-09, global = -2.17389e-21, cumulative = -1.55478e-20
ExecutionTime = 2.46 s  ClockTime = 3 s

Time = 0.0008

Courant Number mean: 0.00596223 max: 0.0875192
DILUPBiCGStab:  Solving for Ux, Initial residual = 0.0236246, Final residual = 4.34729e-07, No Iterations 5
DILUPBiCGStab:  Solving for Uy, Initial residual = 0.0331362, Final residual = 8.79632e-07, No Iterations 5
DILUPBiCGStab:  Solving for Uz, Initial residual = 0.0588701, Final residual = 1.89222e-06, No Iterations 5
linear solve U 17580
nonePCG:  Solving for p, Initial residual = 0.0166935, Final residual = 9.7696e-05, No Iterations 294
linear solve p 64592
time step continuity errors : sum local = 2.61869e-09, global = -2.00713e-21, cumulative = -1.75549e-20
nonePCG:  Solving for p, Initial residual = 0.0133966, Final residual = 9.89459e-05, No Iterations 287
linear solve p 62476
time step continuity errors : sum local = 2.5909e-09, global = -4.20001e-23, cumulative = -1.75969e-20
ExecutionTime = 2.63 s  ClockTime = 3 s

Time = 0.0009

Courant Number mean: 0.0063184 max: 0.0883466
DILUPBiCGStab:  Solving for Ux, Initial residual = 0.0205609, Final residual = 3.72402e-07, No Iterations 5
DILUPBiCGStab:  Solving for Uy, Initial residual = 0.0286503, Final residual = 7.45525e-07, No Iterations 5
DILUPBiCGStab:  Solving for Uz, Initial residual = 0.0520044, Final residual = 1.60422e-06, No Iterations 5
linear solve U 17235
nonePCG:  Solving for p, Initial residual = 0.0138985, Final residual = 9.88841e-05, No Iterations 288
linear solve p 64435
time step continuity errors : sum local = 2.66913e-09, global = 1.33176e-23, cumulative = -1.75836e-20
nonePCG:  Solving for p, Initial residual = 0.0112113, Final residual = 9.78896e-05, No Iterations 283
linear solve p 61076
time step continuity errors : sum local = 2.59565e-09, global = 1.49099e-22, cumulative = -1.74345e-20
ExecutionTime = 2.8 s  ClockTime = 3 s

Time = 0.001

Courant Number mean: 0.00664431 max: 0.089014
DILUPBiCGStab:  Solving for Ux, Initial residual = 0.0181849, Final residual = 3.29074e-07, No Iterations 5
DILUPBiCGStab:  Solving for Uy, Initial residual = 0.0252128, Final residual = 6.4589e-07, No Iterations 5
DILUPBiCGStab:  Solving for Uz, Initial residual = 0.046517, Final residual = 1.39178e-06, No Iterations 5
linear solve U 17111
nonePCG:  Solving for p, Initial residual = 0.0118843, Final residual = 9.92271e-05, No Iterations 285
linear solve p 62792
time step continuity errors : sum local = 2.69354e-09, global = 5.16574e-22, cumulative = -1.69179e-20
nonePCG:  Solving for p, Initial residual = 0.0096253, Final residual = 9.96231e-05, No Iterations 280
linear solve p 62292
time step continuity errors : sum local = 2.66261e-09, global = 2.04566e-21, cumulative = -1.48722e-20
ExecutionTime = 2.96 s  ClockTime = 4 s

Time = 0.0011

Courant Number mean: 0.00694526 max: 0.0895672
DILUPBiCGStab:  Solving for Ux, Initial residual = 0.0162983, Final residual = 2.95241e-07, No Iterations 5
DILUPBiCGStab:  Solving for Uy, Initial residual = 0.0224937, Final residual = 5.67881e-07, No Iterations 5
DILUPBiCGStab:  Solving for Uz, Initial residual = 0.0420352, Final residual = 1.22691e-06, No Iterations 5
linear solve U 17090
nonePCG:  Solving for p, Initial residual = 0.0102956, Final residual = 9.87005e-05, No Iterations 283
linear solve p 60233
time step continuity errors : sum local = 2.6965e-09, global = -2.01725e-21, cumulative = -1.68895e-20
nonePCG:  Solving for p, Initial residual = 0.00836473, Final residual = 9.51823e-05, No Iterations 278
linear solve p 63072
time step continuity errors : sum local = 2.57569e-09, global = -2.1728e-21, cumulative = -1.90623e-20
ExecutionTime = 3.13 s  ClockTime = 4 s

Time = 0.0012

Courant Number mean: 0.00722373 max: 0.0900355
DILUPBiCGStab:  Solving for Ux, Initial residual = 0.0147482, Final residual = 2.67135e-07, No Iterations 5
DILUPBiCGStab:  Solving for Uy, Initial residual = 0.0202892, Final residual = 5.04771e-07, No Iterations 5
DILUPBiCGStab:  Solving for Uz, Initial residual = 0.0383092, Final residual = 1.09456e-06, No Iterations 5
linear solve U 16708
nonePCG:  Solving for p, Initial residual = 0.00904951, Final residual = 9.76217e-05, No Iterations 279
linear solve p 62434
time step continuity errors : sum local = 2.68351e-09, global = -2.4232e-21, cumulative = -2.14855e-20
nonePCG:  Solving for p, Initial residual = 0.00738923, Final residual = 9.8681e-05, No Iterations 275
linear solve p 62695
time step continuity errors : sum local = 2.67913e-09, global = -2.4858e-21, cumulative = -2.39713e-20
ExecutionTime = 3.29 s  ClockTime = 4 s

Time = 0.0013

Courant Number mean: 0.00748295 max: 0.0904386
DILUPBiCGStab:  Solving for Ux, Initial residual = 0.0134669, Final residual = 2.43139e-07, No Iterations 5
DILUPBiCGStab:  Solving for Uy, Initial residual = 0.018466, Final residual = 4.52529e-07, No Iterations 5
DILUPBiCGStab:  Solving for Uz, Initial residual = 0.0351674, Final residual = 9.8615e-07, No Iterations 5
linear solve U 17146
nonePCG:  Solving for p, Initial residual = 0.0080965, Final residual = 9.7452e-05, No Iterations 276
linear solve p 58685
time step continuity errors : sum local = 2.69183e-09, global = -2.19707e-21, cumulative = -2.61684e-20
nonePCG:  Solving for p, Initial residual = 0.00663111, Final residual = 9.944e-05, No Iterations 271
linear solve p 76768
time step continuity errors : sum local = 2.71384e-09, global = -2.53225e-21, cumulative = -2.87006e-20
ExecutionTime = 3.47 s  ClockTime = 4 s

Time = 0.0014

Courant Number mean: 0.00772776 max: 0.0907902
DILUPBiCGStab:  Solving for Ux, Initial residual = 0.0123794, Final residual = 2.22327e-07, No Iterations 5
DILUPBiCGStab:  Solving for Uy, Initial residual = 0.0169331, Final residual = 4.08627e-07, No Iterations 5
DILUPBiCGStab:  Solving for Uz, Initial residual = 0.0324814, Final residual = 8.95786e-07, No Iterations 5
linear solve U 17184
nonePCG:  Solving for p, Initial residual = 0.00728135, Final residual = 9.83153e-05, No Iterations 274
linear solve p 58162
time step continuity errors : sum local = 2.72422e-09, global = -2.72496e-21, cumulative = -3.14256e-20
nonePCG:  Solving for p, Initial residual = 0.00598057, Final residual = 9.73157e-05, No Iterations 270
linear solve p 57958
time step continuity errors : sum local = 2.67553e-09, global = -1.79963e-21, cumulative = -3.32252e-20
ExecutionTime = 3.63 s  ClockTime = 4 s

Time = 0.0015

Courant Number mean: 0.00795854 max: 0.0911005
DILUPBiCGStab:  Solving for Ux, Initial residual = 0.011447, Final residual = 2.04116e-07, No Iterations 5
DILUPBiCGStab:  Solving for Uy, Initial residual = 0.0156265, Final residual = 3.7129e-07, No Iterations 5
DILUPBiCGStab:  Solving for Uz, Initial residual = 0.0301599, Final residual = 8.19146e-07, No Iterations 5
linear solve U 16690
nonePCG:  Solving for p, Initial residual = 0.00658156, Final residual = 9.81285e-05, No Iterations 271
linear solve p 57410
time step continuity errors : sum local = 2.72909e-09, global = -3.09308e-21, cumulative = -3.63183e-20
nonePCG:  Solving for p, Initial residual = 0.00542741, Final residual = 9.87953e-05, No Iterations 266
linear solve p 57802
time step continuity errors : sum local = 2.72421e-09, global = -1.39781e-21, cumulative = -3.77161e-20
ExecutionTime = 3.79 s  ClockTime = 4 s

Time = 0.0016

Courant Number mean: 0.00817642 max: 0.0913769
DILUPBiCGStab:  Solving for Ux, Initial residual = 0.0106406, Final residual = 1.88147e-07, No Iterations 5
DILUPBiCGStab:  Solving for Uy, Initial residual = 0.0144996, Final residual = 3.39252e-07, No Iterations 5
DILUPBiCGStab:  Solving for Uz, Initial residual = 0.0281346, Final residual = 7.53864e-07, No Iterations 5
linear solve U 16806
nonePCG:  Solving for p, Initial residual = 0.00603353, Final residual = 9.82127e-05, No Iterations 271
linear solve p 58420
time step continuity errors : sum local = 2.74056e-09, global = -3.01067e-21, cumulative = -4.07268e-20
nonePCG:  Solving for p, Initial residual = 0.00496622, Final residual = 9.48179e-05, No Iterations 265
linear solve p 60763
time step continuity errors : sum local = 2.63713e-09, global = -2.01907e-21, cumulative = -4.27458e-20
ExecutionTime = 3.95 s  ClockTime = 5 s

Time = 0.0017

Courant Number mean: 0.00838242 max: 0.0916251
DILUPBiCGStab:  Solving for Ux, Initial residual = 0.00993254, Final residual = 1.74057e-07, No Iterations 5
DILUPBiCGStab:  Solving for Uy, Initial residual = 0.0135178, Final residual = 3.11546e-07, No Iterations 5
DILUPBiCGStab:  Solving for Uz, Initial residual = 0.0263519, Final residual = 6.96736e-07, No Iterations 5
linear solve U 17081
nonePCG:  Solving for p, Initial residual = 0.00548984, Final residual = 9.96958e-05, No Iterations 266
linear solve p 58272
time step continuity errors : sum local = 2.78462e-09, global = -2.8455e-21, cumulative = -4.55913e-20
nonePCG:  Solving for p, Initial residual = 0.00454923, Final residual = 9.63767e-05, No Iterations 263
linear solve p 59823
time step continuity errors : sum local = 2.68506e-09, global = -1.27086e-21, cumulative = -4.68622e-20
ExecutionTime = 4.11 s  ClockTime = 5 s

Time = 0.0018

Courant Number mean: 0.00857949 max: 0.0918496
DILUPBiCGStab:  Solving for Ux, Initial residual = 0.00931113, Final residual = 1.61588e-07, No Iterations 5
DILUPBiCGStab:  Solving for Uy, Initial residual = 0.012655, Final residual = 2.87399e-07, No Iterations 5
DILUPBiCGStab:  Solving for Uz, Initial residual = 0.0247717, Final residual = 6.47283e-07, No Iterations 5
linear solve U 16672
nonePCG:  Solving for p, Initial residual = 0.00513515, Final residual = 9.95751e-05, No Iterations 264
linear solve p 59101
time step continuity errors : sum local = 2.78955e-09, global = -4.07407e-22, cumulative = -4.72696e-20
nonePCG:  Solving for p, Initial residual = 0.00426368, Final residual = 9.03789e-05, No Iterations 262
linear solve p 64907
time step continuity errors : sum local = 2.54558e-09, global = -3.06388e-21, cumulative = -5.03335e-20
ExecutionTime = 4.28 s  ClockTime = 5 s

Time = 0.0019

Courant Number mean: 0.00876806 max: 0.0920539
DILUPBiCGStab:  Solving for Ux, Initial residual = 0.00875826, Final residual = 1.50485e-07, No Iterations 5
DILUPBiCGStab:  Solving for Uy, Initial residual = 0.0118907, Final residual = 2.66211e-07, No Iterations 5
DILUPBiCGStab:  Solving for Uz, Initial residual = 0.023361, Final residual = 6.03406e-07, No Iterations 5
linear solve U 18208
nonePCG:  Solving for p, Initial residual = 0.00475306, Final residual = 9.87393e-05, No Iterations 265
linear solve p 57401
time step continuity errors : sum local = 2.77547e-09, global = -3.21595e-21, cumulative = -5.35494e-20
nonePCG:  Solving for p, Initial residual = 0.00394539, Final residual = 9.69478e-05, No Iterations 259
linear solve p 57993
time step continuity errors : sum local = 2.71584e-09, global = -3.50412e-21, cumulative = -5.70536e-20
ExecutionTime = 4.44 s  ClockTime = 5 s

Time = 0.002

Courant Number mean: 0.00894842 max: 0.0922409
DILUPBiCGStab:  Solving for Ux, Initial residual = 0.00826112, Final residual = 1.40546e-07, No Iterations 5
DILUPBiCGStab:  Solving for Uy, Initial residual = 0.011209, Final residual = 2.47526e-07, No Iterations 5
DILUPBiCGStab:  Solving for Uz, Initial residual = 0.0220947, Final residual = 5.64409e-07, No Iterations 5
linear solve U 17368
nonePCG:  Solving for p, Initial residual = 0.0043962, Final residual = 9.91219e-05, No Iterations 263
linear solve p 57002
time step continuity errors : sum local = 2.79092e-09, global = -3.46192e-21, cumulative = -6.05155e-20
nonePCG:  Solving for p, Initial residual = 0.00365204, Final residual = 9.78697e-05, No Iterations 255
linear solve p 58952
time step continuity errors : sum local = 2.74573e-09, global = -5.14918e-21, cumulative = -6.56647e-20
ExecutionTime = 4.6 s  ClockTime = 5 s

End

Finalising parallel run
================================================================================
