hash: a7f3853c57f88641b8280c805826ce0a
/*---------------------------------------------------------------------------*\
| =========                 |                                                 |
| \\      /  F ield         | OpenFOAM: The Open Source CFD Toolbox           |
|  \\    /   O peration     | Version:  2112                                  |
|   \\  /    A nd           | Website:  www.openfoam.com                      |
|    \\/     M anipulation  |                                                 |
\*---------------------------------------------------------------------------*/
Build  : d44c8318f0-20220111 OPENFOAM=2112 version=v2112
Arch   : "LSB;label=32;scalar=64"
Exec   : icoFoam -parallel
Date   : Sep 29 2022
Time   : 13:51:45
Host   : hkn0025.localdomain
PID    : 2327711
I/O    : uncollated
Case   : /hkfs/work/workspace/scratch/eq4036-lidDrivenCavity/single_node/mesh/400/matrix_solver/CG_NoPrecond_PETSC_Default/mpiRank_of/76/base
nProcs : 76
Hosts  :
(
    (hkn0025.localdomain 76)
)
Pstream initialized with:
    floatTransfer      : 0
    nProcsSimpleSum    : 0
    commsType          : nonBlocking
    polling iterations : 0
trapFpe: Floating point exception trapping enabled (FOAM_SIGFPE).
fileModificationChecking : Monitoring run-time modified files using timeStampMaster (fileModificationSkew 5, maxFileModificationPolls 20)
allowSystemOperations : Allowing user-supplied system call operations

// * * * * * * * * * * * * * * * * * * * * * * * * * * * * * * * * * * * * * //
Create time

--> FOAM Warning : 
    From void* Foam::dlLibraryTable::openLibrary(const Foam::fileName&, bool)
    in file db/dynamicLibrary/dlLibraryTable/dlLibraryTable.C at line 188
    Could not load "libpetscFoam.so"
libcuda.so.1: cannot open shared object file: No such file or directory
Create mesh for time = 0


PISO: Operating solver in PISO mode

Reading transportProperties

Reading field p

Reading field U

Reading/calculating face flux field phi


Starting time loop

Time = 2.5e-05

Courant Number mean: 0 max: 0
DILUPBiCGStab:  Solving for Ux, Initial residual = 1, Final residual = 0.00226094, No Iterations 5
DILUPBiCGStab:  Solving for Uy:  solution singularity
DILUPBiCGStab:  Solving for Uz:  solution singularity
linear solve U 1596652
================================================================================
hash: 9b08411bd082ab70b481da20f1ae3b9c
/*---------------------------------------------------------------------------*\
| =========                 |                                                 |
| \\      /  F ield         | OpenFOAM: The Open Source CFD Toolbox           |
|  \\    /   O peration     | Version:  2112                                  |
|   \\  /    A nd           | Website:  www.openfoam.com                      |
|    \\/     M anipulation  |                                                 |
\*---------------------------------------------------------------------------*/
Build  : d44c8318f0-20220111 OPENFOAM=2112 version=v2112
Arch   : "LSB;label=32;scalar=64"
Exec   : icoFoam -parallel
Date   : Oct 04 2022
Time   : 15:25:40
Host   : hkn0608.localdomain
PID    : 2523439
I/O    : uncollated
Case   : /hkfs/work/workspace/scratch/eq4036-lidDrivenCavity/single_node/mesh/400/matrix_solver/CG_NoPrecond_PETSC_CUDA/mpiRank_of/4/base
nProcs : 4
Hosts  :
(
    (hkn0608.localdomain 4)
)
Pstream initialized with:
    floatTransfer      : 0
    nProcsSimpleSum    : 0
    commsType          : nonBlocking
    polling iterations : 0
trapFpe: Floating point exception trapping enabled (FOAM_SIGFPE).
fileModificationChecking : Monitoring run-time modified files using timeStampMaster (fileModificationSkew 5, maxFileModificationPolls 20)
allowSystemOperations : Allowing user-supplied system call operations

// * * * * * * * * * * * * * * * * * * * * * * * * * * * * * * * * * * * * * //
Create time

Create mesh for time = 0


PISO: Operating solver in PISO mode

Reading transportProperties

Reading field p

Reading field U

Reading/calculating face flux field phi


Starting time loop

Time = 2.5e-05

Courant Number mean: 0 max: 0
DILUPBiCGStab:  Solving for Ux, Initial residual = 1, Final residual = 0.00118713, No Iterations 5
DILUPBiCGStab:  Solving for Uy:  solution singularity
DILUPBiCGStab:  Solving for Uz:  solution singularity
linear solve U 11242461
Initializing PETSc
PETSc-cg:  Solving for p, Initial residual = 1, Final residual = 9.99568e-05, No Iterations 3256
linear solve p 17093948
time step continuity errors : sum local = 2.40992e-10, global = 1.93226e-23, cumulative = 1.93226e-23
PETSc-cg:  Solving for p, Initial residual = 0.716144, Final residual = 9.90851e-05, No Iterations 3237
linear solve p 12872034
time step continuity errors : sum local = 3.22366e-10, global = -1.50296e-23, cumulative = 4.29294e-24
ExecutionTime = 111.65 s  ClockTime = 112 s

Time = 5e-05

Courant Number mean: 0.00116777 max: 0.0751289
DILUPBiCGStab:  Solving for Ux, Initial residual = 0.159858, Final residual = 0.000699206, No Iterations 5
DILUPBiCGStab:  Solving for Uy, Initial residual = 0.348607, Final residual = 0.000549935, No Iterations 5
DILUPBiCGStab:  Solving for Uz, Initial residual = 0.997103, Final residual = 0.00258441, No Iterations 5
linear solve U 22675641
PETSc-cg:  Solving for p, Initial residual = 0.6549, Final residual = 9.91431e-05, No Iterations 3180
linear solve p 12649639
time step continuity errors : sum local = 3.48135e-10, global = 4.66344e-23, cumulative = 5.09274e-23
PETSc-cg:  Solving for p, Initial residual = 0.580434, Final residual = 9.87729e-05, No Iterations 3175
linear solve p 12660155
time step continuity errors : sum local = 3.52812e-10, global = 4.30207e-24, cumulative = 5.52295e-23
ExecutionTime = 175.89 s  ClockTime = 177 s

Time = 7.5e-05

Courant Number mean: 0.00178106 max: 0.0870165
DILUPBiCGStab:  Solving for Ux, Initial residual = 0.0661404, Final residual = 0.000197637, No Iterations 5
DILUPBiCGStab:  Solving for Uy, Initial residual = 0.138167, Final residual = 0.000139212, No Iterations 5
DILUPBiCGStab:  Solving for Uz, Initial residual = 0.430577, Final residual = 0.00127506, No Iterations 5
linear solve U 22649521
PETSc-cg:  Solving for p, Initial residual = 0.55682, Final residual = 9.99626e-05, No Iterations 3133
linear solve p 12464020
time step continuity errors : sum local = 2.52875e-10, global = -3.20979e-23, cumulative = 2.31316e-23
PETSc-cg:  Solving for p, Initial residual = 0.499731, Final residual = 9.98415e-05, No Iterations 3123
linear solve p 12404885
time step continuity errors : sum local = 2.47345e-10, global = -2.36795e-23, cumulative = -5.47926e-25
ExecutionTime = 239.66 s  ClockTime = 241 s

Time = 0.0001

Courant Number mean: 0.00220834 max: 0.0903159
DILUPBiCGStab:  Solving for Ux, Initial residual = 0.0436882, Final residual = 8.49395e-05, No Iterations 5
DILUPBiCGStab:  Solving for Uy, Initial residual = 0.0871973, Final residual = 5.74933e-05, No Iterations 5
DILUPBiCGStab:  Solving for Uz, Initial residual = 0.132543, Final residual = 0.000248578, No Iterations 5
linear solve U 30753146
PETSc-cg:  Solving for p, Initial residual = 0.320107, Final residual = 9.99507e-05, No Iterations 1487
linear solve p 6361751
time step continuity errors : sum local = 2.30086e-10, global = 3.86694e-23, cumulative = 3.81215e-23
PETSc-cg:  Solving for p, Initial residual = 0.265675, Final residual = 9.79137e-05, No Iterations 1466
linear solve p 6301707
time step continuity errors : sum local = 2.16847e-10, global = -5.65197e-23, cumulative = -1.83982e-23
ExecutionTime = 299.42 s  ClockTime = 301 s

Time = 0.000125

Courant Number mean: 0.00255413 max: 0.0919042
DILUPBiCGStab:  Solving for Ux, Initial residual = 0.0332524, Final residual = 5.10828e-05, No Iterations 5
DILUPBiCGStab:  Solving for Uy, Initial residual = 0.0630107, Final residual = 3.67645e-05, No Iterations 5
DILUPBiCGStab:  Solving for Uz, Initial residual = 0.0910234, Final residual = 0.000139387, No Iterations 5
linear solve U 30679583
PETSc-cg:  Solving for p, Initial residual = 0.213943, Final residual = 9.96404e-05, No Iterations 1436
linear solve p 6170637
time step continuity errors : sum local = 1.92419e-10, global = 3.83676e-23, cumulative = 1.99694e-23
PETSc-cg:  Solving for p, Initial residual = 0.180194, Final residual = 9.77144e-05, No Iterations 1433
linear solve p 6158315
time step continuity errors : sum local = 1.85674e-10, global = 1.55588e-23, cumulative = 3.55281e-23
ExecutionTime = 358.74 s  ClockTime = 360 s

Time = 0.00015

Courant Number mean: 0.00284935 max: 0.0928888
DILUPBiCGStab:  Solving for Ux, Initial residual = 0.0270466, Final residual = 3.35989e-05, No Iterations 5
DILUPBiCGStab:  Solving for Uy, Initial residual = 0.0494904, Final residual = 1.57018e-05, No Iterations 5
DILUPBiCGStab:  Solving for Uz, Initial residual = 0.0794061, Final residual = 0.00010523, No Iterations 5
linear solve U 30742148
PETSc-cg:  Solving for p, Initial residual = 0.12744, Final residual = 9.88582e-05, No Iterations 1450
linear solve p 6222942
time step continuity errors : sum local = 1.97541e-10, global = -3.06115e-23, cumulative = 4.91664e-24
PETSc-cg:  Solving for p, Initial residual = 0.104997, Final residual = 9.90705e-05, No Iterations 1374
linear solve p 5948374
time step continuity errors : sum local = 1.8878e-10, global = -4.56772e-23, cumulative = -4.07605e-23
ExecutionTime = 417.98 s  ClockTime = 420 s

Time = 0.000175

Courant Number mean: 0.00310981 max: 0.0935747
DILUPBiCGStab:  Solving for Ux, Initial residual = 0.0228825, Final residual = 2.37574e-05, No Iterations 5
DILUPBiCGStab:  Solving for Uy, Initial residual = 0.0407639, Final residual = 1.42395e-05, No Iterations 5
DILUPBiCGStab:  Solving for Uz, Initial residual = 0.0674738, Final residual = 6.92919e-05, No Iterations 5
linear solve U 30715832
PETSc-cg:  Solving for p, Initial residual = 0.0871436, Final residual = 9.99367e-05, No Iterations 1426
linear solve p 6134807
time step continuity errors : sum local = 1.85716e-10, global = -2.68672e-23, cumulative = -6.76278e-23
PETSc-cg:  Solving for p, Initial residual = 0.0725682, Final residual = 9.95145e-05, No Iterations 1379
linear solve p 5961853
time step continuity errors : sum local = 1.78983e-10, global = 1.15541e-22, cumulative = 4.79134e-23
ExecutionTime = 477.07 s  ClockTime = 479 s

Time = 0.0002

Courant Number mean: 0.00334434 max: 0.094089
DILUPBiCGStab:  Solving for Ux, Initial residual = 0.0198933, Final residual = 1.84317e-05, No Iterations 5
DILUPBiCGStab:  Solving for Uy, Initial residual = 0.0346056, Final residual = 6.60725e-06, No Iterations 5
DILUPBiCGStab:  Solving for Uz, Initial residual = 0.06039, Final residual = 5.09954e-05, No Iterations 5
linear solve U 30736489
PETSc-cg:  Solving for p, Initial residual = 0.0554771, Final residual = 9.96305e-05, No Iterations 2976
linear solve p 11886199
time step continuity errors : sum local = 1.7618e-10, global = 3.59754e-23, cumulative = 8.38888e-23
PETSc-cg:  Solving for p, Initial residual = 0.0472305, Final residual = 9.82136e-05, No Iterations 1441
linear solve p 6186917
time step continuity errors : sum local = 1.89178e-10, global = -4.04259e-23, cumulative = 4.3463e-23
ExecutionTime = 542.19 s  ClockTime = 544 s

Time = 0.000225

Courant Number mean: 0.00355866 max: 0.0944924
DILUPBiCGStab:  Solving for Ux, Initial residual = 0.0176051, Final residual = 1.42018e-05, No Iterations 5
DILUPBiCGStab:  Solving for Uy, Initial residual = 0.0301065, Final residual = 6.61824e-06, No Iterations 5
DILUPBiCGStab:  Solving for Uz, Initial residual = 0.0551812, Final residual = 5.00106e-05, No Iterations 5
linear solve U 30731512
PETSc-cg:  Solving for p, Initial residual = 0.0410965, Final residual = 9.97647e-05, No Iterations 2957
linear solve p 11804527
time step continuity errors : sum local = 1.75094e-10, global = -1.2592e-22, cumulative = -8.2457e-23
PETSc-cg:  Solving for p, Initial residual = 0.0352652, Final residual = 9.9924e-05, No Iterations 2942
linear solve p 11733965
time step continuity errors : sum local = 1.75436e-10, global = 7.09708e-23, cumulative = -1.14862e-23
ExecutionTime = 612.81 s  ClockTime = 615 s

Time = 0.00025

Courant Number mean: 0.00375674 max: 0.0948201
DILUPBiCGStab:  Solving for Ux, Initial residual = 0.0158199, Final residual = 1.1564e-05, No Iterations 5
DILUPBiCGStab:  Solving for Uy, Initial residual = 0.0265883, Final residual = 4.02783e-06, No Iterations 5
DILUPBiCGStab:  Solving for Uz, Initial residual = 0.0468496, Final residual = 3.32689e-05, No Iterations 5
linear solve U 30733195
PETSc-cg:  Solving for p, Initial residual = 0.0294955, Final residual = 9.95421e-05, No Iterations 1275
linear solve p 5578886
time step continuity errors : sum local = 1.88116e-10, global = 3.74222e-23, cumulative = 2.5936e-23
PETSc-cg:  Solving for p, Initial residual = 0.0259889, Final residual = 9.98443e-05, No Iterations 1238
linear solve p 5453852
time step continuity errors : sum local = 1.80449e-10, global = 4.67357e-23, cumulative = 7.26717e-23
ExecutionTime = 670.95 s  ClockTime = 673 s

Time = 0.000275

Courant Number mean: 0.00394124 max: 0.0950931
DILUPBiCGStab:  Solving for Ux, Initial residual = 0.0143628, Final residual = 9.41863e-06, No Iterations 5
DILUPBiCGStab:  Solving for Uy, Initial residual = 0.0238301, Final residual = 3.84038e-06, No Iterations 5
DILUPBiCGStab:  Solving for Uz, Initial residual = 0.0433918, Final residual = 2.72532e-05, No Iterations 5
linear solve U 30694495
PETSc-cg:  Solving for p, Initial residual = 0.0236657, Final residual = 9.97431e-05, No Iterations 1310
linear solve p 5724529
time step continuity errors : sum local = 1.8179e-10, global = -1.31716e-23, cumulative = 5.95001e-23
PETSc-cg:  Solving for p, Initial residual = 0.0211884, Final residual = 9.94149e-05, No Iterations 1257
linear solve p 5504598
time step continuity errors : sum local = 1.73949e-10, global = -4.87579e-23, cumulative = 1.07423e-23
ExecutionTime = 729.23 s  ClockTime = 732 s

Time = 0.0003

Courant Number mean: 0.00411426 max: 0.095325
DILUPBiCGStab:  Solving for Ux, Initial residual = 0.0131683, Final residual = 7.84018e-06, No Iterations 5
DILUPBiCGStab:  Solving for Uy, Initial residual = 0.0215589, Final residual = 2.9151e-06, No Iterations 5
DILUPBiCGStab:  Solving for Uz, Initial residual = 0.0406377, Final residual = 2.47967e-05, No Iterations 5
linear solve U 30707152
PETSc-cg:  Solving for p, Initial residual = 0.0186952, Final residual = 9.90754e-05, No Iterations 1435
linear solve p 6167894
time step continuity errors : sum local = 1.90291e-10, global = 3.6458e-23, cumulative = 4.72003e-23
PETSc-cg:  Solving for p, Initial residual = 0.0171578, Final residual = 9.98082e-05, No Iterations 1346
linear solve p 5857346
time step continuity errors : sum local = 1.81153e-10, global = -5.6923e-23, cumulative = -9.72269e-24
ExecutionTime = 788.32 s  ClockTime = 791 s

Time = 0.000325

Courant Number mean: 0.00427751 max: 0.0955253
DILUPBiCGStab:  Solving for Ux, Initial residual = 0.0121499, Final residual = 6.56478e-06, No Iterations 5
DILUPBiCGStab:  Solving for Uy, Initial residual = 0.0197087, Final residual = 2.66557e-06, No Iterations 5
DILUPBiCGStab:  Solving for Uz, Initial residual = 0.0377249, Final residual = 2.38524e-05, No Iterations 5
linear solve U 30739281
PETSc-cg:  Solving for p, Initial residual = 0.0162891, Final residual = 9.88033e-05, No Iterations 1369
linear solve p 5920076
time step continuity errors : sum local = 1.84284e-10, global = -5.84326e-23, cumulative = -6.81552e-23
PETSc-cg:  Solving for p, Initial residual = 0.0150527, Final residual = 9.96534e-05, No Iterations 1279
linear solve p 5597210
time step continuity errors : sum local = 1.75248e-10, global = 9.6806e-24, cumulative = -5.84746e-23
ExecutionTime = 846.88 s  ClockTime = 850 s

Time = 0.00035

Courant Number mean: 0.00443218 max: 0.0957003
DILUPBiCGStab:  Solving for Ux, Initial residual = 0.0112931, Final residual = 5.5702e-06, No Iterations 5
DILUPBiCGStab:  Solving for Uy, Initial residual = 0.0181141, Final residual = 2.24692e-06, No Iterations 5
DILUPBiCGStab:  Solving for Uz, Initial residual = 0.0353178, Final residual = 2.37029e-05, No Iterations 5
linear solve U 30703316
PETSc-cg:  Solving for p, Initial residual = 0.014031, Final residual = 9.9371e-05, No Iterations 2903
linear solve p 11611243
time step continuity errors : sum local = 1.73197e-10, global = -4.4658e-23, cumulative = -1.03133e-22
PETSc-cg:  Solving for p, Initial residual = 0.0131357, Final residual = 9.97845e-05, No Iterations 2899
linear solve p 11573102
time step continuity errors : sum local = 1.74009e-10, global = -1.47515e-22, cumulative = -2.50647e-22
ExecutionTime = 917.09 s  ClockTime = 920 s

Time = 0.000375

Courant Number mean: 0.00457926 max: 0.0958553
DILUPBiCGStab:  Solving for Ux, Initial residual = 0.0105407, Final residual = 4.76274e-06, No Iterations 5
DILUPBiCGStab:  Solving for Uy, Initial residual = 0.0167768, Final residual = 2.03857e-06, No Iterations 5
DILUPBiCGStab:  Solving for Uz, Initial residual = 0.0312998, Final residual = 1.40455e-05, No Iterations 5
linear solve U 30787175
PETSc-cg:  Solving for p, Initial residual = 0.0127083, Final residual = 9.9742e-05, No Iterations 1182
linear solve p 5234147
time step continuity errors : sum local = 1.78866e-10, global = -1.48799e-22, cumulative = -3.99446e-22
PETSc-cg:  Solving for p, Initial residual = 0.0119415, Final residual = 9.93626e-05, No Iterations 1172
linear solve p 5215086
time step continuity errors : sum local = 1.75351e-10, global = 8.78242e-23, cumulative = -3.11622e-22
ExecutionTime = 974.68 s  ClockTime = 978 s

Time = 0.0004

Courant Number mean: 0.00471974 max: 0.0959935
DILUPBiCGStab:  Solving for Ux, Initial residual = 0.00988792, Final residual = 4.11492e-06, No Iterations 5
DILUPBiCGStab:  Solving for Uy, Initial residual = 0.0156099, Final residual = 1.84565e-06, No Iterations 5
DILUPBiCGStab:  Solving for Uz, Initial residual = 0.029745, Final residual = 1.03833e-05, No Iterations 5
linear solve U 30690860
PETSc-cg:  Solving for p, Initial residual = 0.0113714, Final residual = 9.97618e-05, No Iterations 1187
linear solve p 5251513
time step continuity errors : sum local = 1.79497e-10, global = -3.93751e-24, cumulative = -3.15559e-22
PETSc-cg:  Solving for p, Initial residual = 0.0107655, Final residual = 9.97299e-05, No Iterations 1173
linear solve p 5196527
time step continuity errors : sum local = 1.75024e-10, global = -1.13059e-22, cumulative = -4.28618e-22
ExecutionTime = 1032.11 s  ClockTime = 1035 s

Time = 0.000425

Courant Number mean: 0.00485411 max: 0.0961178
DILUPBiCGStab:  Solving for Ux, Initial residual = 0.00930808, Final residual = 3.59086e-06, No Iterations 5
DILUPBiCGStab:  Solving for Uy, Initial residual = 0.0146024, Final residual = 1.68664e-06, No Iterations 5
DILUPBiCGStab:  Solving for Uz, Initial residual = 0.0279347, Final residual = 1.05303e-05, No Iterations 5
linear solve U 30752539
PETSc-cg:  Solving for p, Initial residual = 0.0103044, Final residual = 9.96319e-05, No Iterations 1305
linear solve p 5682434
time step continuity errors : sum local = 1.80558e-10, global = 6.37381e-23, cumulative = -3.6488e-22
PETSc-cg:  Solving for p, Initial residual = 0.00976635, Final residual = 9.95567e-05, No Iterations 1274
linear solve p 5594327
time step continuity errors : sum local = 1.76228e-10, global = 4.57281e-23, cumulative = -3.19152e-22
ExecutionTime = 1090.47 s  ClockTime = 1094 s

Time = 0.00045

Courant Number mean: 0.00498313 max: 0.0962305
DILUPBiCGStab:  Solving for Ux, Initial residual = 0.00879802, Final residual = 3.16341e-06, No Iterations 5
DILUPBiCGStab:  Solving for Uy, Initial residual = 0.0137038, Final residual = 1.52968e-06, No Iterations 5
DILUPBiCGStab:  Solving for Uz, Initial residual = 0.0266951, Final residual = 1.0323e-05, No Iterations 5
linear solve U 30698610
PETSc-cg:  Solving for p, Initial residual = 0.00951857, Final residual = 9.87352e-05, No Iterations 1298
linear solve p 5676181
time step continuity errors : sum local = 1.79916e-10, global = 1.71736e-22, cumulative = -1.47415e-22
PETSc-cg:  Solving for p, Initial residual = 0.00903828, Final residual = 9.99758e-05, No Iterations 1217
linear solve p 5356335
time step continuity errors : sum local = 1.76254e-10, global = -1.69926e-22, cumulative = -3.17342e-22
ExecutionTime = 1148.51 s  ClockTime = 1152 s

Time = 0.000475

Courant Number mean: 0.00510714 max: 0.0963332
DILUPBiCGStab:  Solving for Ux, Initial residual = 0.00833534, Final residual = 2.8118e-06, No Iterations 5
DILUPBiCGStab:  Solving for Uy, Initial residual = 0.0129194, Final residual = 1.40108e-06, No Iterations 5
DILUPBiCGStab:  Solving for Uz, Initial residual = 0.0252549, Final residual = 1.07464e-05, No Iterations 5
linear solve U 30713669
PETSc-cg:  Solving for p, Initial residual = 0.00891194, Final residual = 9.96556e-05, No Iterations 1310
linear solve p 5701336
time step continuity errors : sum local = 1.83157e-10, global = 1.13039e-22, cumulative = -2.04303e-22
PETSc-cg:  Solving for p, Initial residual = 0.00846096, Final residual = 9.9887e-05, No Iterations 1284
linear solve p 5609412
time step continuity errors : sum local = 1.77563e-10, global = -3.27423e-23, cumulative = -2.37045e-22
ExecutionTime = 1206.89 s  ClockTime = 1211 s

Time = 0.0005

Courant Number mean: 0.00522673 max: 0.0964273
DILUPBiCGStab:  Solving for Ux, Initial residual = 0.00792604, Final residual = 2.51919e-06, No Iterations 5
DILUPBiCGStab:  Solving for Uy, Initial residual = 0.0122035, Final residual = 1.28424e-06, No Iterations 5
DILUPBiCGStab:  Solving for Uz, Initial residual = 0.0241053, Final residual = 1.1035e-05, No Iterations 5
linear solve U 30680962
PETSc-cg:  Solving for p, Initial residual = 0.00833041, Final residual = 9.87536e-05, No Iterations 1296
linear solve p 5665656
time step continuity errors : sum local = 1.82901e-10, global = -4.51227e-23, cumulative = -2.82168e-22
PETSc-cg:  Solving for p, Initial residual = 0.0079192, Final residual = 9.98855e-05, No Iterations 1180
linear solve p 5230690
time step continuity errors : sum local = 1.77129e-10, global = 3.31024e-23, cumulative = -2.49066e-22
ExecutionTime = 1264.8 s  ClockTime = 1269 s

End

Finalizing PETSc
Finalising parallel run
================================================================================
hash: 17304d1bb6875bc04401df0fb9e69a81
/*---------------------------------------------------------------------------*\
| =========                 |                                                 |
| \\      /  F ield         | OpenFOAM: The Open Source CFD Toolbox           |
|  \\    /   O peration     | Version:  2112                                  |
|   \\  /    A nd           | Website:  www.openfoam.com                      |
|    \\/     M anipulation  |                                                 |
\*---------------------------------------------------------------------------*/
Build  : d44c8318f0-20220111 OPENFOAM=2112 version=v2112
Arch   : "LSB;label=32;scalar=64"
Exec   : icoFoam -parallel
Date   : Oct 04 2022
Time   : 15:27:41
Host   : hkn0518.localdomain
PID    : 1795066
I/O    : uncollated
Case   : /hkfs/work/workspace/scratch/eq4036-lidDrivenCavity/single_node/mesh/400/matrix_solver/CG_NoPrecond_Ginkgo_CUDA/mpiRank_gko/4/base
nProcs : 4
Hosts  :
(
    (hkn0518.localdomain 4)
)
Pstream initialized with:
    floatTransfer      : 0
    nProcsSimpleSum    : 0
    commsType          : nonBlocking
    polling iterations : 0
trapFpe: Floating point exception trapping enabled (FOAM_SIGFPE).
fileModificationChecking : Monitoring run-time modified files using timeStampMaster (fileModificationSkew 5, maxFileModificationPolls 20)
allowSystemOperations : Allowing user-supplied system call operations

// * * * * * * * * * * * * * * * * * * * * * * * * * * * * * * * * * * * * * //
Create time

Create mesh for time = 0


PISO: Operating solver in PISO mode

Reading transportProperties

Reading field p

Reading field U

Reading/calculating face flux field phi


Starting time loop

Time = 2.5e-05

Courant Number mean: 0 max: 0
DILUPBiCGStab:  Solving for Ux, Initial residual = 1, Final residual = 0.00118713, No Iterations 5
DILUPBiCGStab:  Solving for Uy:  solution singularity
DILUPBiCGStab:  Solving for Uz:  solution singularity
linear solve U 11185854
[OGL LOG][lduLduBase.H:107] Initialising OGL
	Version:  1c3dcec
	Branch: distributed-update 
	Ginkgo version: 1.5.0(develop)
	MPI is GPU aware: 1
	Forces host buffer based communication: 0
	CPU ranks per GPU: 1
	Matrix format: Coo
[OGL LOG][Proc: 0]global_index_init: 3.395 [ms]
[OGL LOG][DevicePersistentBase.H:123] initialising p_local_cols
[OGL LOG][Proc: 0]call_init: 0 [ms]
[OGL LOG][DevicePersistentBase.H:123] initialising p_local_rows
[OGL LOG][Proc: 0]call_init: 0 [ms]
[OGL LOG][DevicePersistentBase.H:123] initialising p_local_coeffs
[OGL LOG][Proc: 0]call_init: 0 [ms]
[OGL LOG][DevicePersistentBase.H:123] initialising p_ldu_csr_map
[OGL LOG][Proc: 0]call_init: 0 [ms]
[OGL LOG][DevicePersistentBase.H:123] initialising p_non_local_cols
[OGL LOG][Proc: 0]call_init: 0 [ms]
[OGL LOG][DevicePersistentBase.H:123] initialising p_non_local_rows
[OGL LOG][Proc: 0]call_init: 0 [ms]
[OGL LOG][DevicePersistentBase.H:123] initialising p_non_local_coeffs
[OGL LOG][Proc: 0]call_init: 0 [ms]
[OGL LOG][Proc: 0]init_local_sparsity_pattern: 2856.66 [ms]
[OGL LOG][Proc: 0]init_non_local_sparsity_pattern: 151.917 [ms]
[OGL LOG][Proc: 0]update_local_matrix_data: 1418.46 [ms]
[OGL LOG][Proc: 0]update_non_local_matrix_data: 2 [ms]
[OGL LOG][DevicePersistentBase.H:123] initialising device_partition
[OGL LOG][Proc: 0]call_init: 0 [ms]
[OGL LOG][DevicePersistentBase.H:123] initialising p_matrix
[OGL LOG][Proc: 0]call_init: 0 [ms]
[OGL LOG][DevicePersistentBase.H:123] initialising p_rhs
[OGL LOG][Proc: 0]call_init: 0 [ms]
[OGL LOG][DevicePersistentBase.H:123] initialising p_solution
[OGL LOG][Proc: 0]call_init: 0 [ms]
[OGL LOG][Proc: 0]init_precond: 0.132 [ms]
[OGL LOG][StoppingCriterion.H:588] Creating stopping criterion with minIter 0 frequency 10
[OGL LOG][Proc: 0]generate_solver: 0.057 [ms]
[OGL LOG][Proc: 0]solve: 13544.4 [ms]
[OGL LOG][Proc: 0]copy_x_back: 64.509 [ms]
[OGL LOG][lduLduBase.H:297] 
Statistics:
	Time per iteration: 4153 [mu s]
	Time per residual norm calculation: 282.000000 [mu s]
	Time per iteration and DOF: 0.064891 [ns]
	Retrieve results bandwith 1.984000 [GByte/s]
nonecudaGKOCG:  Solving for p, Initial residual = 1, Final residual = 9.31874e-05, No Iterations 3261
linear solve p 21581042
time step continuity errors : sum local = 2.24671e-10, global = 1.32932e-23, cumulative = 1.32932e-23
[OGL LOG][Proc: 0]global_index_init: 0.01 [ms]
[OGL LOG][DevicePersistentBase.H:106] reading p_local_cols from registry
[OGL LOG][DevicePersistentBase.H:106] reading p_local_rows from registry
[OGL LOG][DevicePersistentBase.H:106] reading p_local_coeffs from registry
[OGL LOG][Proc: 0]call_update: 0.001 [ms]
[OGL LOG][DevicePersistentBase.H:106] reading p_ldu_csr_map from registry
[OGL LOG][DevicePersistentBase.H:106] reading p_non_local_cols from registry
[OGL LOG][DevicePersistentBase.H:106] reading p_non_local_rows from registry
[OGL LOG][DevicePersistentBase.H:106] reading p_non_local_coeffs from registry
[OGL LOG][Proc: 0]call_update: 0 [ms]
[OGL LOG][Proc: 0]update_local_matrix_data: 1226.11 [ms]
[OGL LOG][Proc: 0]update_non_local_matrix_data: 1.964 [ms]
[OGL LOG][DevicePersistentBase.H:106] reading device_partition from registry
[OGL LOG][DevicePersistentBase.H:106] reading p_matrix from registry
[OGL LOG][Proc: 0]call_update: 1398.36 [ms]
[OGL LOG][DevicePersistentBase.H:106] reading p_rhs from registry
[OGL LOG][Proc: 0]call_update: 86.55 [ms]
[OGL LOG][DevicePersistentBase.H:106] reading p_solution from registry
[OGL LOG][Proc: 0]init_precond: 0.035 [ms]
[OGL LOG][StoppingCriterion.H:588] Creating stopping criterion with minIter 1956 frequency 10
[OGL LOG][Proc: 0]generate_solver: 0.001 [ms]
[OGL LOG][Proc: 0]solve: 13465.9 [ms]
[OGL LOG][Proc: 0]copy_x_back: 66.137 [ms]
[OGL LOG][lduLduBase.H:297] 
Statistics:
	Time per iteration: 4154 [mu s]
	Time per residual norm calculation: 190.000000 [mu s]
	Time per iteration and DOF: 0.064906 [ns]
	Retrieve results bandwith 1.935000 [GByte/s]
nonecudaGKOCG:  Solving for p, Initial residual = 0.716144, Final residual = 9.36588e-05, No Iterations 3241
linear solve p 16368577
time step continuity errors : sum local = 3.0471e-10, global = 2.34603e-24, cumulative = 1.56392e-23
ExecutionTime = 119.12 s  ClockTime = 120 s

Time = 5e-05

Courant Number mean: 0.00116777 max: 0.0751289
DILUPBiCGStab:  Solving for Ux, Initial residual = 0.159858, Final residual = 0.000699206, No Iterations 5
DILUPBiCGStab:  Solving for Uy, Initial residual = 0.348607, Final residual = 0.000549934, No Iterations 5
DILUPBiCGStab:  Solving for Uz, Initial residual = 0.997107, Final residual = 0.00258432, No Iterations 5
linear solve U 22560462
[OGL LOG][Proc: 0]global_index_init: 0.012 [ms]
[OGL LOG][DevicePersistentBase.H:106] reading p_local_cols from registry
[OGL LOG][DevicePersistentBase.H:106] reading p_local_rows from registry
[OGL LOG][DevicePersistentBase.H:106] reading p_local_coeffs from registry
[OGL LOG][Proc: 0]call_update: 0 [ms]
[OGL LOG][DevicePersistentBase.H:106] reading p_ldu_csr_map from registry
[OGL LOG][DevicePersistentBase.H:106] reading p_non_local_cols from registry
[OGL LOG][DevicePersistentBase.H:106] reading p_non_local_rows from registry
[OGL LOG][DevicePersistentBase.H:106] reading p_non_local_coeffs from registry
[OGL LOG][Proc: 0]call_update: 0 [ms]
[OGL LOG][Proc: 0]update_local_matrix_data: 1223.63 [ms]
[OGL LOG][Proc: 0]update_non_local_matrix_data: 1.159 [ms]
[OGL LOG][DevicePersistentBase.H:106] reading device_partition from registry
[OGL LOG][DevicePersistentBase.H:106] reading p_matrix from registry
[OGL LOG][Proc: 0]call_update: 1382.67 [ms]
[OGL LOG][DevicePersistentBase.H:106] reading p_rhs from registry
[OGL LOG][Proc: 0]call_update: 69.364 [ms]
[OGL LOG][DevicePersistentBase.H:106] reading p_solution from registry
[OGL LOG][Proc: 0]init_precond: 0.027 [ms]
[OGL LOG][StoppingCriterion.H:588] Creating stopping criterion with minIter 1944 frequency 10
[OGL LOG][Proc: 0]generate_solver: 0.001 [ms]
[OGL LOG][Proc: 0]solve: 13222.7 [ms]
[OGL LOG][Proc: 0]copy_x_back: 65.959 [ms]
[OGL LOG][lduLduBase.H:297] 
Statistics:
	Time per iteration: 4156 [mu s]
	Time per residual norm calculation: 181.000000 [mu s]
	Time per iteration and DOF: 0.064937 [ns]
	Retrieve results bandwith 1.940000 [GByte/s]
nonecudaGKOCG:  Solving for p, Initial residual = 0.654901, Final residual = 9.88963e-05, No Iterations 3181
linear solve p 16089243
time step continuity errors : sum local = 3.47266e-10, global = -4.83062e-23, cumulative = -3.2667e-23
[OGL LOG][Proc: 0]global_index_init: 0.01 [ms]
[OGL LOG][DevicePersistentBase.H:106] reading p_local_cols from registry
[OGL LOG][DevicePersistentBase.H:106] reading p_local_rows from registry
[OGL LOG][DevicePersistentBase.H:106] reading p_local_coeffs from registry
[OGL LOG][Proc: 0]call_update: 0 [ms]
[OGL LOG][DevicePersistentBase.H:106] reading p_ldu_csr_map from registry
[OGL LOG][DevicePersistentBase.H:106] reading p_non_local_cols from registry
[OGL LOG][DevicePersistentBase.H:106] reading p_non_local_rows from registry
[OGL LOG][DevicePersistentBase.H:106] reading p_non_local_coeffs from registry
[OGL LOG][Proc: 0]call_update: 0 [ms]
[OGL LOG][Proc: 0]update_local_matrix_data: 1227.9 [ms]
[OGL LOG][Proc: 0]update_non_local_matrix_data: 1.127 [ms]
[OGL LOG][DevicePersistentBase.H:106] reading device_partition from registry
[OGL LOG][DevicePersistentBase.H:106] reading p_matrix from registry
[OGL LOG][Proc: 0]call_update: 1395.56 [ms]
[OGL LOG][DevicePersistentBase.H:106] reading p_rhs from registry
[OGL LOG][Proc: 0]call_update: 69.701 [ms]
[OGL LOG][DevicePersistentBase.H:106] reading p_solution from registry
[OGL LOG][Proc: 0]init_precond: 0.026 [ms]
[OGL LOG][StoppingCriterion.H:588] Creating stopping criterion with minIter 1908 frequency 10
[OGL LOG][Proc: 0]generate_solver: 0.001 [ms]
[OGL LOG][Proc: 0]solve: 13225.8 [ms]
[OGL LOG][Proc: 0]copy_x_back: 65.797 [ms]
[OGL LOG][lduLduBase.H:297] 
Statistics:
	Time per iteration: 4157 [mu s]
	Time per residual norm calculation: 182.000000 [mu s]
	Time per iteration and DOF: 0.064953 [ns]
	Retrieve results bandwith 1.945000 [GByte/s]
nonecudaGKOCG:  Solving for p, Initial residual = 0.580434, Final residual = 8.79455e-05, No Iterations 3181
linear solve p 16108673
time step continuity errors : sum local = 3.14136e-10, global = -4.25732e-23, cumulative = -7.52402e-23
ExecutionTime = 190.28 s  ClockTime = 191 s

Time = 7.5e-05

Courant Number mean: 0.00178106 max: 0.0870165
DILUPBiCGStab:  Solving for Ux, Initial residual = 0.0661404, Final residual = 0.000197638, No Iterations 5
DILUPBiCGStab:  Solving for Uy, Initial residual = 0.138167, Final residual = 0.00013921, No Iterations 5
DILUPBiCGStab:  Solving for Uz, Initial residual = 0.430371, Final residual = 0.00127383, No Iterations 5
linear solve U 22554894
[OGL LOG][Proc: 0]global_index_init: 0.009 [ms]
[OGL LOG][DevicePersistentBase.H:106] reading p_local_cols from registry
[OGL LOG][DevicePersistentBase.H:106] reading p_local_rows from registry
[OGL LOG][DevicePersistentBase.H:106] reading p_local_coeffs from registry
[OGL LOG][Proc: 0]call_update: 0 [ms]
[OGL LOG][DevicePersistentBase.H:106] reading p_ldu_csr_map from registry
[OGL LOG][DevicePersistentBase.H:106] reading p_non_local_cols from registry
[OGL LOG][DevicePersistentBase.H:106] reading p_non_local_rows from registry
[OGL LOG][DevicePersistentBase.H:106] reading p_non_local_coeffs from registry
[OGL LOG][Proc: 0]call_update: 0 [ms]
[OGL LOG][Proc: 0]update_local_matrix_data: 1224.5 [ms]
[OGL LOG][Proc: 0]update_non_local_matrix_data: 1.276 [ms]
[OGL LOG][DevicePersistentBase.H:106] reading device_partition from registry
[OGL LOG][DevicePersistentBase.H:106] reading p_matrix from registry
[OGL LOG][Proc: 0]call_update: 1384.1 [ms]
[OGL LOG][DevicePersistentBase.H:106] reading p_rhs from registry
[OGL LOG][Proc: 0]call_update: 69.459 [ms]
[OGL LOG][DevicePersistentBase.H:106] reading p_solution from registry
[OGL LOG][Proc: 0]init_precond: 0.026 [ms]
[OGL LOG][StoppingCriterion.H:588] Creating stopping criterion with minIter 1908 frequency 10
[OGL LOG][Proc: 0]generate_solver: 0.001 [ms]
[OGL LOG][Proc: 0]solve: 13072.2 [ms]
[OGL LOG][Proc: 0]copy_x_back: 66.528 [ms]
[OGL LOG][lduLduBase.H:297] 
Statistics:
	Time per iteration: 4161 [mu s]
	Time per residual norm calculation: 179.000000 [mu s]
	Time per iteration and DOF: 0.065016 [ns]
	Retrieve results bandwith 1.924000 [GByte/s]
nonecudaGKOCG:  Solving for p, Initial residual = 0.556817, Final residual = 9.11403e-05, No Iterations 3141
linear solve p 15941129
time step continuity errors : sum local = 2.30557e-10, global = 3.87704e-23, cumulative = -3.64698e-23
[OGL LOG][Proc: 0]global_index_init: 0.009 [ms]
[OGL LOG][DevicePersistentBase.H:106] reading p_local_cols from registry
[OGL LOG][DevicePersistentBase.H:106] reading p_local_rows from registry
[OGL LOG][DevicePersistentBase.H:106] reading p_local_coeffs from registry
[OGL LOG][Proc: 0]call_update: 0 [ms]
[OGL LOG][DevicePersistentBase.H:106] reading p_ldu_csr_map from registry
[OGL LOG][DevicePersistentBase.H:106] reading p_non_local_cols from registry
[OGL LOG][DevicePersistentBase.H:106] reading p_non_local_rows from registry
[OGL LOG][DevicePersistentBase.H:106] reading p_non_local_coeffs from registry
[OGL LOG][Proc: 0]call_update: 0 [ms]
[OGL LOG][Proc: 0]update_local_matrix_data: 1226.38 [ms]
[OGL LOG][Proc: 0]update_non_local_matrix_data: 1.188 [ms]
[OGL LOG][DevicePersistentBase.H:106] reading device_partition from registry
[OGL LOG][DevicePersistentBase.H:106] reading p_matrix from registry
[OGL LOG][Proc: 0]call_update: 1394.6 [ms]
[OGL LOG][DevicePersistentBase.H:106] reading p_rhs from registry
[OGL LOG][Proc: 0]call_update: 69.276 [ms]
[OGL LOG][DevicePersistentBase.H:106] reading p_solution from registry
[OGL LOG][Proc: 0]init_precond: 0.026 [ms]
[OGL LOG][StoppingCriterion.H:588] Creating stopping criterion with minIter 1884 frequency 10
[OGL LOG][Proc: 0]generate_solver: 0.002 [ms]
[OGL LOG][Proc: 0]solve: 13034 [ms]
[OGL LOG][Proc: 0]copy_x_back: 65.746 [ms]
[OGL LOG][lduLduBase.H:297] 
Statistics:
	Time per iteration: 4162 [mu s]
	Time per residual norm calculation: 184.000000 [mu s]
	Time per iteration and DOF: 0.065031 [ns]
	Retrieve results bandwith 1.946000 [GByte/s]
nonecudaGKOCG:  Solving for p, Initial residual = 0.499724, Final residual = 9.27089e-05, No Iterations 3131
linear solve p 15914238
time step continuity errors : sum local = 2.29674e-10, global = 3.99042e-23, cumulative = 3.43437e-24
ExecutionTime = 261.09 s  ClockTime = 262 s

Time = 0.0001

Courant Number mean: 0.00220834 max: 0.0903159
DILUPBiCGStab:  Solving for Ux, Initial residual = 0.0436882, Final residual = 8.494e-05, No Iterations 5
DILUPBiCGStab:  Solving for Uy, Initial residual = 0.0871973, Final residual = 5.74906e-05, No Iterations 5
DILUPBiCGStab:  Solving for Uz, Initial residual = 0.13237, Final residual = 0.000247876, No Iterations 5
linear solve U 22672234
[OGL LOG][Proc: 0]global_index_init: 0.01 [ms]
[OGL LOG][DevicePersistentBase.H:106] reading p_local_cols from registry
[OGL LOG][DevicePersistentBase.H:106] reading p_local_rows from registry
[OGL LOG][DevicePersistentBase.H:106] reading p_local_coeffs from registry
[OGL LOG][Proc: 0]call_update: 0 [ms]
[OGL LOG][DevicePersistentBase.H:106] reading p_ldu_csr_map from registry
[OGL LOG][DevicePersistentBase.H:106] reading p_non_local_cols from registry
[OGL LOG][DevicePersistentBase.H:106] reading p_non_local_rows from registry
[OGL LOG][DevicePersistentBase.H:106] reading p_non_local_coeffs from registry
[OGL LOG][Proc: 0]call_update: 0 [ms]
[OGL LOG][Proc: 0]update_local_matrix_data: 1227.07 [ms]
[OGL LOG][Proc: 0]update_non_local_matrix_data: 1.956 [ms]
[OGL LOG][DevicePersistentBase.H:106] reading device_partition from registry
[OGL LOG][DevicePersistentBase.H:106] reading p_matrix from registry
[OGL LOG][Proc: 0]call_update: 1384.5 [ms]
[OGL LOG][DevicePersistentBase.H:106] reading p_rhs from registry
[OGL LOG][Proc: 0]call_update: 86.539 [ms]
[OGL LOG][DevicePersistentBase.H:106] reading p_solution from registry
[OGL LOG][Proc: 0]init_precond: 0.033 [ms]
[OGL LOG][StoppingCriterion.H:588] Creating stopping criterion with minIter 1878 frequency 10
[OGL LOG][Proc: 0]generate_solver: 0.002 [ms]
[OGL LOG][Proc: 0]solve: 12937.7 [ms]
[OGL LOG][Proc: 0]copy_x_back: 65.829 [ms]
[OGL LOG][lduLduBase.H:297] 
Statistics:
	Time per iteration: 4172 [mu s]
	Time per residual norm calculation: 189.000000 [mu s]
	Time per iteration and DOF: 0.065187 [ns]
	Retrieve results bandwith 1.944000 [GByte/s]
nonecudaGKOCG:  Solving for p, Initial residual = 0.32007, Final residual = 9.02093e-05, No Iterations 3101
linear solve p 15827198
time step continuity errors : sum local = 1.94129e-10, global = 2.4756e-23, cumulative = 2.81904e-23
[OGL LOG][Proc: 0]global_index_init: 0.011 [ms]
[OGL LOG][DevicePersistentBase.H:106] reading p_local_cols from registry
[OGL LOG][DevicePersistentBase.H:106] reading p_local_rows from registry
[OGL LOG][DevicePersistentBase.H:106] reading p_local_coeffs from registry
[OGL LOG][Proc: 0]call_update: 0 [ms]
[OGL LOG][DevicePersistentBase.H:106] reading p_ldu_csr_map from registry
[OGL LOG][DevicePersistentBase.H:106] reading p_non_local_cols from registry
[OGL LOG][DevicePersistentBase.H:106] reading p_non_local_rows from registry
[OGL LOG][DevicePersistentBase.H:106] reading p_non_local_coeffs from registry
[OGL LOG][Proc: 0]call_update: 0 [ms]
[OGL LOG][Proc: 0]update_local_matrix_data: 1227.82 [ms]
[OGL LOG][Proc: 0]update_non_local_matrix_data: 1.193 [ms]
[OGL LOG][DevicePersistentBase.H:106] reading device_partition from registry
[OGL LOG][DevicePersistentBase.H:106] reading p_matrix from registry
[OGL LOG][Proc: 0]call_update: 1396.76 [ms]
[OGL LOG][DevicePersistentBase.H:106] reading p_rhs from registry
[OGL LOG][Proc: 0]call_update: 69.547 [ms]
[OGL LOG][DevicePersistentBase.H:106] reading p_solution from registry
[OGL LOG][Proc: 0]init_precond: 0.027 [ms]
[OGL LOG][StoppingCriterion.H:588] Creating stopping criterion with minIter 1860 frequency 10
[OGL LOG][Proc: 0]generate_solver: 0.002 [ms]
[OGL LOG][Proc: 0]solve: 12913 [ms]
[OGL LOG][Proc: 0]copy_x_back: 66.301 [ms]
[OGL LOG][lduLduBase.H:297] 
Statistics:
	Time per iteration: 4177 [mu s]
	Time per residual norm calculation: 213.000000 [mu s]
	Time per iteration and DOF: 0.065266 [ns]
	Retrieve results bandwith 1.930000 [GByte/s]
nonecudaGKOCG:  Solving for p, Initial residual = 0.265625, Final residual = 9.74888e-05, No Iterations 3091
linear solve p 15793298
time step continuity errors : sum local = 2.11355e-10, global = 2.085e-24, cumulative = 3.02754e-23
ExecutionTime = 331.89 s  ClockTime = 333 s

Time = 0.000125

Courant Number mean: 0.00255413 max: 0.0919042
DILUPBiCGStab:  Solving for Ux, Initial residual = 0.0332573, Final residual = 5.10925e-05, No Iterations 5
DILUPBiCGStab:  Solving for Uy, Initial residual = 0.0629923, Final residual = 3.67502e-05, No Iterations 5
DILUPBiCGStab:  Solving for Uz, Initial residual = 0.0877209, Final residual = 0.000132377, No Iterations 5
linear solve U 22570639
[OGL LOG][Proc: 0]global_index_init: 0.011 [ms]
[OGL LOG][DevicePersistentBase.H:106] reading p_local_cols from registry
[OGL LOG][DevicePersistentBase.H:106] reading p_local_rows from registry
[OGL LOG][DevicePersistentBase.H:106] reading p_local_coeffs from registry
[OGL LOG][Proc: 0]call_update: 0 [ms]
[OGL LOG][DevicePersistentBase.H:106] reading p_ldu_csr_map from registry
[OGL LOG][DevicePersistentBase.H:106] reading p_non_local_cols from registry
[OGL LOG][DevicePersistentBase.H:106] reading p_non_local_rows from registry
[OGL LOG][DevicePersistentBase.H:106] reading p_non_local_coeffs from registry
[OGL LOG][Proc: 0]call_update: 0 [ms]
[OGL LOG][Proc: 0]update_local_matrix_data: 1228.26 [ms]
[OGL LOG][Proc: 0]update_non_local_matrix_data: 2 [ms]
[OGL LOG][DevicePersistentBase.H:106] reading device_partition from registry
[OGL LOG][DevicePersistentBase.H:106] reading p_matrix from registry
[OGL LOG][Proc: 0]call_update: 1386.19 [ms]
[OGL LOG][DevicePersistentBase.H:106] reading p_rhs from registry
[OGL LOG][Proc: 0]call_update: 86.379 [ms]
[OGL LOG][DevicePersistentBase.H:106] reading p_solution from registry
[OGL LOG][Proc: 0]init_precond: 0.032 [ms]
[OGL LOG][StoppingCriterion.H:588] Creating stopping criterion with minIter 1854 frequency 10
[OGL LOG][Proc: 0]generate_solver: 0.002 [ms]
[OGL LOG][Proc: 0]solve: 12578.9 [ms]
[OGL LOG][Proc: 0]copy_x_back: 66.022 [ms]
[OGL LOG][lduLduBase.H:297] 
Statistics:
	Time per iteration: 4191 [mu s]
	Time per residual norm calculation: 194.000000 [mu s]
	Time per iteration and DOF: 0.065484 [ns]
	Retrieve results bandwith 1.938000 [GByte/s]
nonecudaGKOCG:  Solving for p, Initial residual = 0.213886, Final residual = 8.69355e-05, No Iterations 3001
linear solve p 15465959
time step continuity errors : sum local = 1.65823e-10, global = -9.05161e-24, cumulative = 2.12238e-23
[OGL LOG][Proc: 0]global_index_init: 0.014 [ms]
[OGL LOG][DevicePersistentBase.H:106] reading p_local_cols from registry
[OGL LOG][DevicePersistentBase.H:106] reading p_local_rows from registry
[OGL LOG][DevicePersistentBase.H:106] reading p_local_coeffs from registry
[OGL LOG][Proc: 0]call_update: 0 [ms]
[OGL LOG][DevicePersistentBase.H:106] reading p_ldu_csr_map from registry
[OGL LOG][DevicePersistentBase.H:106] reading p_non_local_cols from registry
[OGL LOG][DevicePersistentBase.H:106] reading p_non_local_rows from registry
[OGL LOG][DevicePersistentBase.H:106] reading p_non_local_coeffs from registry
[OGL LOG][Proc: 0]call_update: 0 [ms]
[OGL LOG][Proc: 0]update_local_matrix_data: 1230 [ms]
[OGL LOG][Proc: 0]update_non_local_matrix_data: 1.998 [ms]
[OGL LOG][DevicePersistentBase.H:106] reading device_partition from registry
[OGL LOG][DevicePersistentBase.H:106] reading p_matrix from registry
[OGL LOG][Proc: 0]call_update: 1395.65 [ms]
[OGL LOG][DevicePersistentBase.H:106] reading p_rhs from registry
[OGL LOG][Proc: 0]call_update: 86.498 [ms]
[OGL LOG][DevicePersistentBase.H:106] reading p_solution from registry
[OGL LOG][Proc: 0]init_precond: 0.031 [ms]
[OGL LOG][StoppingCriterion.H:588] Creating stopping criterion with minIter 1800 frequency 10
[OGL LOG][Proc: 0]generate_solver: 0.001 [ms]
[OGL LOG][Proc: 0]solve: 12511.6 [ms]
[OGL LOG][Proc: 0]copy_x_back: 65.875 [ms]
[OGL LOG][lduLduBase.H:297] 
Statistics:
	Time per iteration: 4183 [mu s]
	Time per residual norm calculation: 181.000000 [mu s]
	Time per iteration and DOF: 0.065359 [ns]
	Retrieve results bandwith 1.943000 [GByte/s]
nonecudaGKOCG:  Solving for p, Initial residual = 0.180127, Final residual = 9.76881e-05, No Iterations 2991
linear solve p 15414934
time step continuity errors : sum local = 1.85589e-10, global = 2.70782e-23, cumulative = 4.8302e-23
ExecutionTime = 401.83 s  ClockTime = 403 s

Time = 0.00015

Courant Number mean: 0.00284935 max: 0.0928888
DILUPBiCGStab:  Solving for Ux, Initial residual = 0.0270451, Final residual = 3.35963e-05, No Iterations 5
DILUPBiCGStab:  Solving for Uy, Initial residual = 0.049493, Final residual = 1.56879e-05, No Iterations 5
DILUPBiCGStab:  Solving for Uz, Initial residual = 0.0765174, Final residual = 9.863e-05, No Iterations 5
linear solve U 22664552
[OGL LOG][Proc: 0]global_index_init: 0.011 [ms]
[OGL LOG][DevicePersistentBase.H:106] reading p_local_cols from registry
[OGL LOG][DevicePersistentBase.H:106] reading p_local_rows from registry
[OGL LOG][DevicePersistentBase.H:106] reading p_local_coeffs from registry
[OGL LOG][Proc: 0]call_update: 0 [ms]
[OGL LOG][DevicePersistentBase.H:106] reading p_ldu_csr_map from registry
[OGL LOG][DevicePersistentBase.H:106] reading p_non_local_cols from registry
[OGL LOG][DevicePersistentBase.H:106] reading p_non_local_rows from registry
[OGL LOG][DevicePersistentBase.H:106] reading p_non_local_coeffs from registry
[OGL LOG][Proc: 0]call_update: 0 [ms]
[OGL LOG][Proc: 0]update_local_matrix_data: 1228.53 [ms]
[OGL LOG][Proc: 0]update_non_local_matrix_data: 1.9 [ms]
[OGL LOG][DevicePersistentBase.H:106] reading device_partition from registry
[OGL LOG][DevicePersistentBase.H:106] reading p_matrix from registry
[OGL LOG][Proc: 0]call_update: 1384.89 [ms]
[OGL LOG][DevicePersistentBase.H:106] reading p_rhs from registry
[OGL LOG][Proc: 0]call_update: 86.561 [ms]
[OGL LOG][DevicePersistentBase.H:106] reading p_solution from registry
[OGL LOG][Proc: 0]init_precond: 0.038 [ms]
[OGL LOG][StoppingCriterion.H:588] Creating stopping criterion with minIter 1794 frequency 10
[OGL LOG][Proc: 0]generate_solver: 0.001 [ms]
[OGL LOG][Proc: 0]solve: 8308.48 [ms]
[OGL LOG][Proc: 0]copy_x_back: 66.212 [ms]
[OGL LOG][lduLduBase.H:297] 
Statistics:
	Time per iteration: 4370 [mu s]
	Time per residual norm calculation: 192.000000 [mu s]
	Time per iteration and DOF: 0.068281 [ns]
	Retrieve results bandwith 1.933000 [GByte/s]
nonecudaGKOCG:  Solving for p, Initial residual = 0.127235, Final residual = 9.7397e-05, No Iterations 1901
linear solve p 11200129
time step continuity errors : sum local = 1.86449e-10, global = -5.11482e-23, cumulative = -2.84622e-24
[OGL LOG][Proc: 0]global_index_init: 0.011 [ms]
[OGL LOG][DevicePersistentBase.H:106] reading p_local_cols from registry
[OGL LOG][DevicePersistentBase.H:106] reading p_local_rows from registry
[OGL LOG][DevicePersistentBase.H:106] reading p_local_coeffs from registry
[OGL LOG][Proc: 0]call_update: 0 [ms]
[OGL LOG][DevicePersistentBase.H:106] reading p_ldu_csr_map from registry
[OGL LOG][DevicePersistentBase.H:106] reading p_non_local_cols from registry
[OGL LOG][DevicePersistentBase.H:106] reading p_non_local_rows from registry
[OGL LOG][DevicePersistentBase.H:106] reading p_non_local_coeffs from registry
[OGL LOG][Proc: 0]call_update: 0 [ms]
[OGL LOG][Proc: 0]update_local_matrix_data: 1223.08 [ms]
[OGL LOG][Proc: 0]update_non_local_matrix_data: 1.172 [ms]
[OGL LOG][DevicePersistentBase.H:106] reading device_partition from registry
[OGL LOG][DevicePersistentBase.H:106] reading p_matrix from registry
[OGL LOG][Proc: 0]call_update: 1397.97 [ms]
[OGL LOG][DevicePersistentBase.H:106] reading p_rhs from registry
[OGL LOG][Proc: 0]call_update: 69.606 [ms]
[OGL LOG][DevicePersistentBase.H:106] reading p_solution from registry
[OGL LOG][Proc: 0]init_precond: 0.028 [ms]
[OGL LOG][StoppingCriterion.H:588] Creating stopping criterion with minIter 1140 frequency 10
[OGL LOG][Proc: 0]generate_solver: 0.002 [ms]
[OGL LOG][Proc: 0]solve: 6258.45 [ms]
[OGL LOG][Proc: 0]copy_x_back: 66.486 [ms]
[OGL LOG][lduLduBase.H:297] 
Statistics:
	Time per iteration: 4564 [mu s]
	Time per residual norm calculation: 180.000000 [mu s]
	Time per iteration and DOF: 0.071313 [ns]
	Retrieve results bandwith 1.925000 [GByte/s]
nonecudaGKOCG:  Solving for p, Initial residual = 0.104806, Final residual = 9.99124e-05, No Iterations 1371
linear solve p 9139869
time step continuity errors : sum local = 1.86832e-10, global = 6.80156e-23, cumulative = 6.51694e-23
ExecutionTime = 461.3 s  ClockTime = 462 s

Time = 0.000175

Courant Number mean: 0.00310981 max: 0.0935747
DILUPBiCGStab:  Solving for Ux, Initial residual = 0.0228843, Final residual = 2.37576e-05, No Iterations 5
DILUPBiCGStab:  Solving for Uy, Initial residual = 0.0407567, Final residual = 1.4231e-05, No Iterations 5
DILUPBiCGStab:  Solving for Uz, Initial residual = 0.06646, Final residual = 6.45729e-05, No Iterations 5
linear solve U 22626356
[OGL LOG][Proc: 0]global_index_init: 1.309 [ms]
[OGL LOG][DevicePersistentBase.H:106] reading p_local_cols from registry
[OGL LOG][DevicePersistentBase.H:106] reading p_local_rows from registry
[OGL LOG][DevicePersistentBase.H:106] reading p_local_coeffs from registry
[OGL LOG][Proc: 0]call_update: 0 [ms]
[OGL LOG][DevicePersistentBase.H:106] reading p_ldu_csr_map from registry
[OGL LOG][DevicePersistentBase.H:106] reading p_non_local_cols from registry
[OGL LOG][DevicePersistentBase.H:106] reading p_non_local_rows from registry
[OGL LOG][DevicePersistentBase.H:106] reading p_non_local_coeffs from registry
[OGL LOG][Proc: 0]call_update: 0 [ms]
[OGL LOG][Proc: 0]update_local_matrix_data: 1229.69 [ms]
[OGL LOG][Proc: 0]update_non_local_matrix_data: 2.01 [ms]
[OGL LOG][DevicePersistentBase.H:106] reading device_partition from registry
[OGL LOG][DevicePersistentBase.H:106] reading p_matrix from registry
[OGL LOG][Proc: 0]call_update: 1385.54 [ms]
[OGL LOG][DevicePersistentBase.H:106] reading p_rhs from registry
[OGL LOG][Proc: 0]call_update: 86.545 [ms]
[OGL LOG][DevicePersistentBase.H:106] reading p_solution from registry
[OGL LOG][Proc: 0]init_precond: 0.031 [ms]
[OGL LOG][StoppingCriterion.H:588] Creating stopping criterion with minIter 822 frequency 10
[OGL LOG][Proc: 0]generate_solver: 0.001 [ms]
[OGL LOG][Proc: 0]solve: 6089.67 [ms]
[OGL LOG][Proc: 0]copy_x_back: 65.821 [ms]
[OGL LOG][lduLduBase.H:297] 
Statistics:
	Time per iteration: 4609 [mu s]
	Time per residual norm calculation: 188.000000 [mu s]
	Time per iteration and DOF: 0.072016 [ns]
	Retrieve results bandwith 1.944000 [GByte/s]
nonecudaGKOCG:  Solving for p, Initial residual = 0.0871778, Final residual = 9.60756e-05, No Iterations 1321
linear solve p 8984716
time step continuity errors : sum local = 1.72438e-10, global = -2.00772e-23, cumulative = 4.50921e-23
[OGL LOG][Proc: 0]global_index_init: 0.01 [ms]
[OGL LOG][DevicePersistentBase.H:106] reading p_local_cols from registry
[OGL LOG][DevicePersistentBase.H:106] reading p_local_rows from registry
[OGL LOG][DevicePersistentBase.H:106] reading p_local_coeffs from registry
[OGL LOG][Proc: 0]call_update: 0 [ms]
[OGL LOG][DevicePersistentBase.H:106] reading p_ldu_csr_map from registry
[OGL LOG][DevicePersistentBase.H:106] reading p_non_local_cols from registry
[OGL LOG][DevicePersistentBase.H:106] reading p_non_local_rows from registry
[OGL LOG][DevicePersistentBase.H:106] reading p_non_local_coeffs from registry
[OGL LOG][Proc: 0]call_update: 0 [ms]
[OGL LOG][Proc: 0]update_local_matrix_data: 1228.23 [ms]
[OGL LOG][Proc: 0]update_non_local_matrix_data: 1.211 [ms]
[OGL LOG][DevicePersistentBase.H:106] reading device_partition from registry
[OGL LOG][DevicePersistentBase.H:106] reading p_matrix from registry
[OGL LOG][Proc: 0]call_update: 1398.08 [ms]
[OGL LOG][DevicePersistentBase.H:106] reading p_rhs from registry
[OGL LOG][Proc: 0]call_update: 69.482 [ms]
[OGL LOG][DevicePersistentBase.H:106] reading p_solution from registry
[OGL LOG][Proc: 0]init_precond: 0.026 [ms]
[OGL LOG][StoppingCriterion.H:588] Creating stopping criterion with minIter 792 frequency 10
[OGL LOG][Proc: 0]generate_solver: 0.002 [ms]
[OGL LOG][Proc: 0]solve: 6077.03 [ms]
[OGL LOG][Proc: 0]copy_x_back: 66.143 [ms]
[OGL LOG][lduLduBase.H:297] 
Statistics:
	Time per iteration: 4600 [mu s]
	Time per residual norm calculation: 182.000000 [mu s]
	Time per iteration and DOF: 0.071875 [ns]
	Retrieve results bandwith 1.935000 [GByte/s]
nonecudaGKOCG:  Solving for p, Initial residual = 0.0725996, Final residual = 9.32639e-05, No Iterations 1321
linear solve p 8963345
time step continuity errors : sum local = 1.67441e-10, global = 4.6568e-23, cumulative = 9.16601e-23
ExecutionTime = 518.47 s  ClockTime = 520 s

Time = 0.0002

Courant Number mean: 0.00334434 max: 0.094089
DILUPBiCGStab:  Solving for Ux, Initial residual = 0.0198901, Final residual = 1.84267e-05, No Iterations 5
DILUPBiCGStab:  Solving for Uy, Initial residual = 0.0346124, Final residual = 6.60075e-06, No Iterations 5
DILUPBiCGStab:  Solving for Uz, Initial residual = 0.0585864, Final residual = 4.4996e-05, No Iterations 5
linear solve U 22566435
[OGL LOG][Proc: 0]global_index_init: 0.011 [ms]
[OGL LOG][DevicePersistentBase.H:106] reading p_local_cols from registry
[OGL LOG][DevicePersistentBase.H:106] reading p_local_rows from registry
[OGL LOG][DevicePersistentBase.H:106] reading p_local_coeffs from registry
[OGL LOG][Proc: 0]call_update: 0 [ms]
[OGL LOG][DevicePersistentBase.H:106] reading p_ldu_csr_map from registry
[OGL LOG][DevicePersistentBase.H:106] reading p_non_local_cols from registry
[OGL LOG][DevicePersistentBase.H:106] reading p_non_local_rows from registry
[OGL LOG][DevicePersistentBase.H:106] reading p_non_local_coeffs from registry
[OGL LOG][Proc: 0]call_update: 0 [ms]
[OGL LOG][Proc: 0]update_local_matrix_data: 1228.38 [ms]
[OGL LOG][Proc: 0]update_non_local_matrix_data: 1.972 [ms]
[OGL LOG][DevicePersistentBase.H:106] reading device_partition from registry
[OGL LOG][DevicePersistentBase.H:106] reading p_matrix from registry
[OGL LOG][Proc: 0]call_update: 1385.79 [ms]
[OGL LOG][DevicePersistentBase.H:106] reading p_rhs from registry
[OGL LOG][Proc: 0]call_update: 86.685 [ms]
[OGL LOG][DevicePersistentBase.H:106] reading p_solution from registry
[OGL LOG][Proc: 0]init_precond: 0.031 [ms]
[OGL LOG][StoppingCriterion.H:588] Creating stopping criterion with minIter 792 frequency 10
[OGL LOG][Proc: 0]generate_solver: 0.002 [ms]
[OGL LOG][Proc: 0]solve: 6053.28 [ms]
[OGL LOG][Proc: 0]copy_x_back: 66.129 [ms]
[OGL LOG][lduLduBase.H:297] 
Statistics:
	Time per iteration: 4617 [mu s]
	Time per residual norm calculation: 197.000000 [mu s]
	Time per iteration and DOF: 0.072141 [ns]
	Retrieve results bandwith 1.935000 [GByte/s]
nonecudaGKOCG:  Solving for p, Initial residual = 0.0555769, Final residual = 9.85591e-05, No Iterations 1311
linear solve p 8945738
time step continuity errors : sum local = 1.81168e-10, global = -3.72781e-24, cumulative = 8.79323e-23
[OGL LOG][Proc: 0]global_index_init: 0.01 [ms]
[OGL LOG][DevicePersistentBase.H:106] reading p_local_cols from registry
[OGL LOG][DevicePersistentBase.H:106] reading p_local_rows from registry
[OGL LOG][DevicePersistentBase.H:106] reading p_local_coeffs from registry
[OGL LOG][Proc: 0]call_update: 0 [ms]
[OGL LOG][DevicePersistentBase.H:106] reading p_ldu_csr_map from registry
[OGL LOG][DevicePersistentBase.H:106] reading p_non_local_cols from registry
[OGL LOG][DevicePersistentBase.H:106] reading p_non_local_rows from registry
[OGL LOG][DevicePersistentBase.H:106] reading p_non_local_coeffs from registry
[OGL LOG][Proc: 0]call_update: 0 [ms]
[OGL LOG][Proc: 0]update_local_matrix_data: 1229.08 [ms]
[OGL LOG][Proc: 0]update_non_local_matrix_data: 1.224 [ms]
[OGL LOG][DevicePersistentBase.H:106] reading device_partition from registry
[OGL LOG][DevicePersistentBase.H:106] reading p_matrix from registry
[OGL LOG][Proc: 0]call_update: 1397.09 [ms]
[OGL LOG][DevicePersistentBase.H:106] reading p_rhs from registry
[OGL LOG][Proc: 0]call_update: 69.299 [ms]
[OGL LOG][DevicePersistentBase.H:106] reading p_solution from registry
[OGL LOG][Proc: 0]init_precond: 0.031 [ms]
[OGL LOG][StoppingCriterion.H:588] Creating stopping criterion with minIter 786 frequency 10
[OGL LOG][Proc: 0]generate_solver: 0.002 [ms]
[OGL LOG][Proc: 0]solve: 6056.27 [ms]
[OGL LOG][Proc: 0]copy_x_back: 65.132 [ms]
[OGL LOG][lduLduBase.H:297] 
Statistics:
	Time per iteration: 4655 [mu s]
	Time per residual norm calculation: 185.000000 [mu s]
	Time per iteration and DOF: 0.072734 [ns]
	Retrieve results bandwith 1.965000 [GByte/s]
nonecudaGKOCG:  Solving for p, Initial residual = 0.0473372, Final residual = 9.32922e-05, No Iterations 1301
linear solve p 8938853
time step continuity errors : sum local = 1.67659e-10, global = -4.05774e-23, cumulative = 4.73549e-23
ExecutionTime = 575.48 s  ClockTime = 577 s

Time = 0.000225

Courant Number mean: 0.00355866 max: 0.0944924
DILUPBiCGStab:  Solving for Ux, Initial residual = 0.0176087, Final residual = 1.41991e-05, No Iterations 5
DILUPBiCGStab:  Solving for Uy, Initial residual = 0.0300911, Final residual = 6.63379e-06, No Iterations 5
DILUPBiCGStab:  Solving for Uz, Initial residual = 0.0520056, Final residual = 3.34502e-05, No Iterations 5
linear solve U 22564944
[OGL LOG][Proc: 0]global_index_init: 0.011 [ms]
[OGL LOG][DevicePersistentBase.H:106] reading p_local_cols from registry
[OGL LOG][DevicePersistentBase.H:106] reading p_local_rows from registry
[OGL LOG][DevicePersistentBase.H:106] reading p_local_coeffs from registry
[OGL LOG][Proc: 0]call_update: 0 [ms]
[OGL LOG][DevicePersistentBase.H:106] reading p_ldu_csr_map from registry
[OGL LOG][DevicePersistentBase.H:106] reading p_non_local_cols from registry
[OGL LOG][DevicePersistentBase.H:106] reading p_non_local_rows from registry
[OGL LOG][DevicePersistentBase.H:106] reading p_non_local_coeffs from registry
[OGL LOG][Proc: 0]call_update: 0 [ms]
[OGL LOG][Proc: 0]update_local_matrix_data: 1228.53 [ms]
[OGL LOG][Proc: 0]update_non_local_matrix_data: 1.976 [ms]
[OGL LOG][DevicePersistentBase.H:106] reading device_partition from registry
[OGL LOG][DevicePersistentBase.H:106] reading p_matrix from registry
[OGL LOG][Proc: 0]call_update: 1388.61 [ms]
[OGL LOG][DevicePersistentBase.H:106] reading p_rhs from registry
[OGL LOG][Proc: 0]call_update: 86.974 [ms]
[OGL LOG][DevicePersistentBase.H:106] reading p_solution from registry
[OGL LOG][Proc: 0]init_precond: 0.031 [ms]
[OGL LOG][StoppingCriterion.H:588] Creating stopping criterion with minIter 780 frequency 10
[OGL LOG][Proc: 0]generate_solver: 0.001 [ms]
[OGL LOG][Proc: 0]solve: 5976.81 [ms]
[OGL LOG][Proc: 0]copy_x_back: 66.135 [ms]
[OGL LOG][lduLduBase.H:297] 
Statistics:
	Time per iteration: 4629 [mu s]
	Time per residual norm calculation: 183.000000 [mu s]
	Time per iteration and DOF: 0.072328 [ns]
	Retrieve results bandwith 1.935000 [GByte/s]
nonecudaGKOCG:  Solving for p, Initial residual = 0.0410798, Final residual = 9.44208e-05, No Iterations 1291
linear solve p 8872843
time step continuity errors : sum local = 1.67504e-10, global = 2.07609e-23, cumulative = 6.81159e-23
[OGL LOG][Proc: 0]global_index_init: 0.011 [ms]
[OGL LOG][DevicePersistentBase.H:106] reading p_local_cols from registry
[OGL LOG][DevicePersistentBase.H:106] reading p_local_rows from registry
[OGL LOG][DevicePersistentBase.H:106] reading p_local_coeffs from registry
[OGL LOG][Proc: 0]call_update: 0 [ms]
[OGL LOG][DevicePersistentBase.H:106] reading p_ldu_csr_map from registry
[OGL LOG][DevicePersistentBase.H:106] reading p_non_local_cols from registry
[OGL LOG][DevicePersistentBase.H:106] reading p_non_local_rows from registry
[OGL LOG][DevicePersistentBase.H:106] reading p_non_local_coeffs from registry
[OGL LOG][Proc: 0]call_update: 0 [ms]
[OGL LOG][Proc: 0]update_local_matrix_data: 1230.08 [ms]
[OGL LOG][Proc: 0]update_non_local_matrix_data: 1.71 [ms]
[OGL LOG][DevicePersistentBase.H:106] reading device_partition from registry
[OGL LOG][DevicePersistentBase.H:106] reading p_matrix from registry
[OGL LOG][Proc: 0]call_update: 1397.68 [ms]
[OGL LOG][DevicePersistentBase.H:106] reading p_rhs from registry
[OGL LOG][Proc: 0]call_update: 74.372 [ms]
[OGL LOG][DevicePersistentBase.H:106] reading p_solution from registry
[OGL LOG][Proc: 0]init_precond: 0.044 [ms]
[OGL LOG][StoppingCriterion.H:588] Creating stopping criterion with minIter 774 frequency 10
[OGL LOG][Proc: 0]generate_solver: 0.002 [ms]
[OGL LOG][Proc: 0]solve: 5962.46 [ms]
[OGL LOG][Proc: 0]copy_x_back: 66.054 [ms]
[OGL LOG][lduLduBase.H:297] 
Statistics:
	Time per iteration: 4654 [mu s]
	Time per residual norm calculation: 191.000000 [mu s]
	Time per iteration and DOF: 0.072719 [ns]
	Retrieve results bandwith 1.937000 [GByte/s]
nonecudaGKOCG:  Solving for p, Initial residual = 0.0352495, Final residual = 9.73954e-05, No Iterations 1281
linear solve p 8856774
time step continuity errors : sum local = 1.71095e-10, global = 4.10256e-23, cumulative = 1.09141e-22
ExecutionTime = 632.34 s  ClockTime = 634 s

Time = 0.00025

Courant Number mean: 0.00375674 max: 0.0948202
DILUPBiCGStab:  Solving for Ux, Initial residual = 0.0158193, Final residual = 1.15632e-05, No Iterations 5
DILUPBiCGStab:  Solving for Uy, Initial residual = 0.0265862, Final residual = 4.0551e-06, No Iterations 5
DILUPBiCGStab:  Solving for Uz, Initial residual = 0.0474135, Final residual = 2.5616e-05, No Iterations 5
linear solve U 22600671
[OGL LOG][Proc: 0]global_index_init: 0.01 [ms]
[OGL LOG][DevicePersistentBase.H:106] reading p_local_cols from registry
[OGL LOG][DevicePersistentBase.H:106] reading p_local_rows from registry
[OGL LOG][DevicePersistentBase.H:106] reading p_local_coeffs from registry
[OGL LOG][Proc: 0]call_update: 0 [ms]
[OGL LOG][DevicePersistentBase.H:106] reading p_ldu_csr_map from registry
[OGL LOG][DevicePersistentBase.H:106] reading p_non_local_cols from registry
[OGL LOG][DevicePersistentBase.H:106] reading p_non_local_rows from registry
[OGL LOG][DevicePersistentBase.H:106] reading p_non_local_coeffs from registry
[OGL LOG][Proc: 0]call_update: 0 [ms]
[OGL LOG][Proc: 0]update_local_matrix_data: 1229.28 [ms]
[OGL LOG][Proc: 0]update_non_local_matrix_data: 1.471 [ms]
[OGL LOG][DevicePersistentBase.H:106] reading device_partition from registry
[OGL LOG][DevicePersistentBase.H:106] reading p_matrix from registry
[OGL LOG][Proc: 0]call_update: 1388.26 [ms]
[OGL LOG][DevicePersistentBase.H:106] reading p_rhs from registry
[OGL LOG][Proc: 0]call_update: 68.896 [ms]
[OGL LOG][DevicePersistentBase.H:106] reading p_solution from registry
[OGL LOG][Proc: 0]init_precond: 0.036 [ms]
[OGL LOG][StoppingCriterion.H:588] Creating stopping criterion with minIter 768 frequency 10
[OGL LOG][Proc: 0]generate_solver: 0.002 [ms]
[OGL LOG][Proc: 0]solve: 6078.38 [ms]
[OGL LOG][Proc: 0]copy_x_back: 66.386 [ms]
[OGL LOG][lduLduBase.H:297] 
Statistics:
	Time per iteration: 4636 [mu s]
	Time per residual norm calculation: 185.000000 [mu s]
	Time per iteration and DOF: 0.072438 [ns]
	Retrieve results bandwith 1.928000 [GByte/s]
nonecudaGKOCG:  Solving for p, Initial residual = 0.0294395, Final residual = 9.98096e-05, No Iterations 1311
linear solve p 8956634
time step continuity errors : sum local = 1.82343e-10, global = -2.68259e-23, cumulative = 8.23156e-23
[OGL LOG][Proc: 0]global_index_init: 0.011 [ms]
[OGL LOG][DevicePersistentBase.H:106] reading p_local_cols from registry
[OGL LOG][DevicePersistentBase.H:106] reading p_local_rows from registry
[OGL LOG][DevicePersistentBase.H:106] reading p_local_coeffs from registry
[OGL LOG][Proc: 0]call_update: 0 [ms]
[OGL LOG][DevicePersistentBase.H:106] reading p_ldu_csr_map from registry
[OGL LOG][DevicePersistentBase.H:106] reading p_non_local_cols from registry
[OGL LOG][DevicePersistentBase.H:106] reading p_non_local_rows from registry
[OGL LOG][DevicePersistentBase.H:106] reading p_non_local_coeffs from registry
[OGL LOG][Proc: 0]call_update: 0 [ms]
[OGL LOG][Proc: 0]update_local_matrix_data: 1229.52 [ms]
[OGL LOG][Proc: 0]update_non_local_matrix_data: 2.05 [ms]
[OGL LOG][DevicePersistentBase.H:106] reading device_partition from registry
[OGL LOG][DevicePersistentBase.H:106] reading p_matrix from registry
[OGL LOG][Proc: 0]call_update: 1396.38 [ms]
[OGL LOG][DevicePersistentBase.H:106] reading p_rhs from registry
[OGL LOG][Proc: 0]call_update: 86.915 [ms]
[OGL LOG][DevicePersistentBase.H:106] reading p_solution from registry
[OGL LOG][Proc: 0]init_precond: 0.032 [ms]
[OGL LOG][StoppingCriterion.H:588] Creating stopping criterion with minIter 786 frequency 10
[OGL LOG][Proc: 0]generate_solver: 0.002 [ms]
[OGL LOG][Proc: 0]solve: 5933.93 [ms]
[OGL LOG][Proc: 0]copy_x_back: 65.747 [ms]
[OGL LOG][lduLduBase.H:297] 
Statistics:
	Time per iteration: 4632 [mu s]
	Time per residual norm calculation: 192.000000 [mu s]
	Time per iteration and DOF: 0.072375 [ns]
	Retrieve results bandwith 1.946000 [GByte/s]
nonecudaGKOCG:  Solving for p, Initial residual = 0.0259402, Final residual = 9.57632e-05, No Iterations 1281
linear solve p 8838063
time step continuity errors : sum local = 1.70567e-10, global = -3.844e-23, cumulative = 4.38756e-23
ExecutionTime = 689.26 s  ClockTime = 691 s

Time = 0.000275

Courant Number mean: 0.00394124 max: 0.0950931
DILUPBiCGStab:  Solving for Ux, Initial residual = 0.0143638, Final residual = 9.4183e-06, No Iterations 5
DILUPBiCGStab:  Solving for Uy, Initial residual = 0.0238268, Final residual = 3.84382e-06, No Iterations 5
DILUPBiCGStab:  Solving for Uz, Initial residual = 0.043216, Final residual = 2.19461e-05, No Iterations 5
linear solve U 22667418
[OGL LOG][Proc: 0]global_index_init: 0.011 [ms]
[OGL LOG][DevicePersistentBase.H:106] reading p_local_cols from registry
[OGL LOG][DevicePersistentBase.H:106] reading p_local_rows from registry
[OGL LOG][DevicePersistentBase.H:106] reading p_local_coeffs from registry
[OGL LOG][Proc: 0]call_update: 0 [ms]
[OGL LOG][DevicePersistentBase.H:106] reading p_ldu_csr_map from registry
[OGL LOG][DevicePersistentBase.H:106] reading p_non_local_cols from registry
[OGL LOG][DevicePersistentBase.H:106] reading p_non_local_rows from registry
[OGL LOG][DevicePersistentBase.H:106] reading p_non_local_coeffs from registry
[OGL LOG][Proc: 0]call_update: 0 [ms]
[OGL LOG][Proc: 0]update_local_matrix_data: 1225.67 [ms]
[OGL LOG][Proc: 0]update_non_local_matrix_data: 1.921 [ms]
[OGL LOG][DevicePersistentBase.H:106] reading device_partition from registry
[OGL LOG][DevicePersistentBase.H:106] reading p_matrix from registry
[OGL LOG][Proc: 0]call_update: 1386.91 [ms]
[OGL LOG][DevicePersistentBase.H:106] reading p_rhs from registry
[OGL LOG][Proc: 0]call_update: 86.562 [ms]
[OGL LOG][DevicePersistentBase.H:106] reading p_solution from registry
[OGL LOG][Proc: 0]init_precond: 0.03 [ms]
[OGL LOG][StoppingCriterion.H:588] Creating stopping criterion with minIter 768 frequency 10
[OGL LOG][Proc: 0]generate_solver: 0.001 [ms]
[OGL LOG][Proc: 0]solve: 6287.43 [ms]
[OGL LOG][Proc: 0]copy_x_back: 66.081 [ms]
[OGL LOG][lduLduBase.H:297] 
Statistics:
	Time per iteration: 4586 [mu s]
	Time per residual norm calculation: 191.000000 [mu s]
	Time per iteration and DOF: 0.071656 [ns]
	Retrieve results bandwith 1.937000 [GByte/s]
nonecudaGKOCG:  Solving for p, Initial residual = 0.0235339, Final residual = 8.81348e-05, No Iterations 1371
linear solve p 9177877
time step continuity errors : sum local = 1.57395e-10, global = -7.01546e-23, cumulative = -2.6279e-23
[OGL LOG][Proc: 0]global_index_init: 0.011 [ms]
[OGL LOG][DevicePersistentBase.H:106] reading p_local_cols from registry
[OGL LOG][DevicePersistentBase.H:106] reading p_local_rows from registry
[OGL LOG][DevicePersistentBase.H:106] reading p_local_coeffs from registry
[OGL LOG][Proc: 0]call_update: 0 [ms]
[OGL LOG][DevicePersistentBase.H:106] reading p_ldu_csr_map from registry
[OGL LOG][DevicePersistentBase.H:106] reading p_non_local_cols from registry
[OGL LOG][DevicePersistentBase.H:106] reading p_non_local_rows from registry
[OGL LOG][DevicePersistentBase.H:106] reading p_non_local_coeffs from registry
[OGL LOG][Proc: 0]call_update: 0 [ms]
[OGL LOG][Proc: 0]update_local_matrix_data: 1227.92 [ms]
[OGL LOG][Proc: 0]update_non_local_matrix_data: 1.275 [ms]
[OGL LOG][DevicePersistentBase.H:106] reading device_partition from registry
[OGL LOG][DevicePersistentBase.H:106] reading p_matrix from registry
[OGL LOG][Proc: 0]call_update: 1397.82 [ms]
[OGL LOG][DevicePersistentBase.H:106] reading p_rhs from registry
[OGL LOG][Proc: 0]call_update: 69.96 [ms]
[OGL LOG][DevicePersistentBase.H:106] reading p_solution from registry
[OGL LOG][Proc: 0]init_precond: 0.028 [ms]
[OGL LOG][StoppingCriterion.H:588] Creating stopping criterion with minIter 822 frequency 10
[OGL LOG][Proc: 0]generate_solver: 0.002 [ms]
[OGL LOG][Proc: 0]solve: 6191.31 [ms]
[OGL LOG][Proc: 0]copy_x_back: 66.217 [ms]
[OGL LOG][lduLduBase.H:297] 
Statistics:
	Time per iteration: 4582 [mu s]
	Time per residual norm calculation: 182.000000 [mu s]
	Time per iteration and DOF: 0.071594 [ns]
	Retrieve results bandwith 1.933000 [GByte/s]
nonecudaGKOCG:  Solving for p, Initial residual = 0.0210676, Final residual = 9.75823e-05, No Iterations 1351
linear solve p 9078243
time step continuity errors : sum local = 1.70421e-10, global = -1.46325e-23, cumulative = -4.09116e-23
ExecutionTime = 746.64 s  ClockTime = 748 s

Time = 0.0003

Courant Number mean: 0.00411426 max: 0.095325
DILUPBiCGStab:  Solving for Ux, Initial residual = 0.0131668, Final residual = 7.83788e-06, No Iterations 5
DILUPBiCGStab:  Solving for Uy, Initial residual = 0.0215614, Final residual = 2.91777e-06, No Iterations 5
DILUPBiCGStab:  Solving for Uz, Initial residual = 0.0399908, Final residual = 1.83857e-05, No Iterations 5
linear solve U 22609594
[OGL LOG][Proc: 0]global_index_init: 0.01 [ms]
[OGL LOG][DevicePersistentBase.H:106] reading p_local_cols from registry
[OGL LOG][DevicePersistentBase.H:106] reading p_local_rows from registry
[OGL LOG][DevicePersistentBase.H:106] reading p_local_coeffs from registry
[OGL LOG][Proc: 0]call_update: 0 [ms]
[OGL LOG][DevicePersistentBase.H:106] reading p_ldu_csr_map from registry
[OGL LOG][DevicePersistentBase.H:106] reading p_non_local_cols from registry
[OGL LOG][DevicePersistentBase.H:106] reading p_non_local_rows from registry
[OGL LOG][DevicePersistentBase.H:106] reading p_non_local_coeffs from registry
[OGL LOG][Proc: 0]call_update: 0 [ms]
[OGL LOG][Proc: 0]update_local_matrix_data: 1229.39 [ms]
[OGL LOG][Proc: 0]update_non_local_matrix_data: 1.994 [ms]
[OGL LOG][DevicePersistentBase.H:106] reading device_partition from registry
[OGL LOG][DevicePersistentBase.H:106] reading p_matrix from registry
[OGL LOG][Proc: 0]call_update: 1389.02 [ms]
[OGL LOG][DevicePersistentBase.H:106] reading p_rhs from registry
[OGL LOG][Proc: 0]call_update: 87.194 [ms]
[OGL LOG][DevicePersistentBase.H:106] reading p_solution from registry
[OGL LOG][Proc: 0]init_precond: 0.031 [ms]
[OGL LOG][StoppingCriterion.H:588] Creating stopping criterion with minIter 810 frequency 10
[OGL LOG][Proc: 0]generate_solver: 0.001 [ms]
[OGL LOG][Proc: 0]solve: 6208.08 [ms]
[OGL LOG][Proc: 0]copy_x_back: 65.894 [ms]
[OGL LOG][lduLduBase.H:297] 
Statistics:
	Time per iteration: 4595 [mu s]
	Time per residual norm calculation: 188.000000 [mu s]
	Time per iteration and DOF: 0.071797 [ns]
	Retrieve results bandwith 1.942000 [GByte/s]
nonecudaGKOCG:  Solving for p, Initial residual = 0.0185697, Final residual = 9.88511e-05, No Iterations 1351
linear solve p 9106114
time step continuity errors : sum local = 1.82048e-10, global = -4.00588e-23, cumulative = -8.09704e-23
[OGL LOG][Proc: 0]global_index_init: 0.01 [ms]
[OGL LOG][DevicePersistentBase.H:106] reading p_local_cols from registry
[OGL LOG][DevicePersistentBase.H:106] reading p_local_rows from registry
[OGL LOG][DevicePersistentBase.H:106] reading p_local_coeffs from registry
[OGL LOG][Proc: 0]call_update: 0 [ms]
[OGL LOG][DevicePersistentBase.H:106] reading p_ldu_csr_map from registry
[OGL LOG][DevicePersistentBase.H:106] reading p_non_local_cols from registry
[OGL LOG][DevicePersistentBase.H:106] reading p_non_local_rows from registry
[OGL LOG][DevicePersistentBase.H:106] reading p_non_local_coeffs from registry
[OGL LOG][Proc: 0]call_update: 0 [ms]
[OGL LOG][Proc: 0]update_local_matrix_data: 1226.29 [ms]
[OGL LOG][Proc: 0]update_non_local_matrix_data: 1.186 [ms]
[OGL LOG][DevicePersistentBase.H:106] reading device_partition from registry
[OGL LOG][DevicePersistentBase.H:106] reading p_matrix from registry
[OGL LOG][Proc: 0]call_update: 1397.93 [ms]
[OGL LOG][DevicePersistentBase.H:106] reading p_rhs from registry
[OGL LOG][Proc: 0]call_update: 69.026 [ms]
[OGL LOG][DevicePersistentBase.H:106] reading p_solution from registry
[OGL LOG][Proc: 0]init_precond: 0.026 [ms]
[OGL LOG][StoppingCriterion.H:588] Creating stopping criterion with minIter 810 frequency 10
[OGL LOG][Proc: 0]generate_solver: 0.001 [ms]
[OGL LOG][Proc: 0]solve: 5762.18 [ms]
[OGL LOG][Proc: 0]copy_x_back: 65.779 [ms]
[OGL LOG][lduLduBase.H:297] 
Statistics:
	Time per iteration: 4680 [mu s]
	Time per residual norm calculation: 184.000000 [mu s]
	Time per iteration and DOF: 0.073125 [ns]
	Retrieve results bandwith 1.945000 [GByte/s]
nonecudaGKOCG:  Solving for p, Initial residual = 0.0170741, Final residual = 9.707e-05, No Iterations 1231
linear solve p 8646848
time step continuity errors : sum local = 1.73136e-10, global = 3.24714e-23, cumulative = -4.8499e-23
ExecutionTime = 803.66 s  ClockTime = 805 s

Time = 0.000325

Courant Number mean: 0.00427751 max: 0.0955252
DILUPBiCGStab:  Solving for Ux, Initial residual = 0.0121508, Final residual = 6.56297e-06, No Iterations 5
DILUPBiCGStab:  Solving for Uy, Initial residual = 0.0197034, Final residual = 2.67681e-06, No Iterations 5
DILUPBiCGStab:  Solving for Uz, Initial residual = 0.0368227, Final residual = 1.75793e-05, No Iterations 5
linear solve U 22569558
[OGL LOG][Proc: 0]global_index_init: 0.011 [ms]
[OGL LOG][DevicePersistentBase.H:106] reading p_local_cols from registry
[OGL LOG][DevicePersistentBase.H:106] reading p_local_rows from registry
[OGL LOG][DevicePersistentBase.H:106] reading p_local_coeffs from registry
[OGL LOG][Proc: 0]call_update: 0 [ms]
[OGL LOG][DevicePersistentBase.H:106] reading p_ldu_csr_map from registry
[OGL LOG][DevicePersistentBase.H:106] reading p_non_local_cols from registry
[OGL LOG][DevicePersistentBase.H:106] reading p_non_local_rows from registry
[OGL LOG][DevicePersistentBase.H:106] reading p_non_local_coeffs from registry
[OGL LOG][Proc: 0]call_update: 0 [ms]
[OGL LOG][Proc: 0]update_local_matrix_data: 1230.81 [ms]
[OGL LOG][Proc: 0]update_non_local_matrix_data: 1.952 [ms]
[OGL LOG][DevicePersistentBase.H:106] reading device_partition from registry
[OGL LOG][DevicePersistentBase.H:106] reading p_matrix from registry
[OGL LOG][Proc: 0]call_update: 1387.46 [ms]
[OGL LOG][DevicePersistentBase.H:106] reading p_rhs from registry
[OGL LOG][Proc: 0]call_update: 86.271 [ms]
[OGL LOG][DevicePersistentBase.H:106] reading p_solution from registry
[OGL LOG][Proc: 0]init_precond: 0.032 [ms]
[OGL LOG][StoppingCriterion.H:588] Creating stopping criterion with minIter 738 frequency 10
[OGL LOG][Proc: 0]generate_solver: 0.002 [ms]
[OGL LOG][Proc: 0]solve: 6250.86 [ms]
[OGL LOG][Proc: 0]copy_x_back: 65.783 [ms]
[OGL LOG][lduLduBase.H:297] 
Statistics:
	Time per iteration: 4592 [mu s]
	Time per residual norm calculation: 192.000000 [mu s]
	Time per iteration and DOF: 0.071750 [ns]
	Retrieve results bandwith 1.945000 [GByte/s]
nonecudaGKOCG:  Solving for p, Initial residual = 0.016211, Final residual = 9.02467e-05, No Iterations 1361
linear solve p 9167611
time step continuity errors : sum local = 1.63196e-10, global = -6.2288e-23, cumulative = -1.10787e-22
[OGL LOG][Proc: 0]global_index_init: 0.011 [ms]
[OGL LOG][DevicePersistentBase.H:106] reading p_local_cols from registry
[OGL LOG][DevicePersistentBase.H:106] reading p_local_rows from registry
[OGL LOG][DevicePersistentBase.H:106] reading p_local_coeffs from registry
[OGL LOG][Proc: 0]call_update: 0 [ms]
[OGL LOG][DevicePersistentBase.H:106] reading p_ldu_csr_map from registry
[OGL LOG][DevicePersistentBase.H:106] reading p_non_local_cols from registry
[OGL LOG][DevicePersistentBase.H:106] reading p_non_local_rows from registry
[OGL LOG][DevicePersistentBase.H:106] reading p_non_local_coeffs from registry
[OGL LOG][Proc: 0]call_update: 0 [ms]
[OGL LOG][Proc: 0]update_local_matrix_data: 1229.57 [ms]
[OGL LOG][Proc: 0]update_non_local_matrix_data: 1.651 [ms]
[OGL LOG][DevicePersistentBase.H:106] reading device_partition from registry
[OGL LOG][DevicePersistentBase.H:106] reading p_matrix from registry
[OGL LOG][Proc: 0]call_update: 1398.69 [ms]
[OGL LOG][DevicePersistentBase.H:106] reading p_rhs from registry
[OGL LOG][Proc: 0]call_update: 70.105 [ms]
[OGL LOG][DevicePersistentBase.H:106] reading p_solution from registry
[OGL LOG][Proc: 0]init_precond: 0.033 [ms]
[OGL LOG][StoppingCriterion.H:588] Creating stopping criterion with minIter 816 frequency 10
[OGL LOG][Proc: 0]generate_solver: 0.002 [ms]
[OGL LOG][Proc: 0]solve: 6170.6 [ms]
[OGL LOG][Proc: 0]copy_x_back: 65.657 [ms]
[OGL LOG][lduLduBase.H:297] 
Statistics:
	Time per iteration: 4636 [mu s]
	Time per residual norm calculation: 189.000000 [mu s]
	Time per iteration and DOF: 0.072438 [ns]
	Retrieve results bandwith 1.949000 [GByte/s]
nonecudaGKOCG:  Solving for p, Initial residual = 0.014995, Final residual = 9.74765e-05, No Iterations 1331
linear solve p 9053962
time step continuity errors : sum local = 1.70555e-10, global = -7.46089e-23, cumulative = -1.85396e-22
ExecutionTime = 861.06 s  ClockTime = 863 s

Time = 0.00035

Courant Number mean: 0.00443218 max: 0.0957004
DILUPBiCGStab:  Solving for Ux, Initial residual = 0.0112909, Final residual = 5.56612e-06, No Iterations 5
DILUPBiCGStab:  Solving for Uy, Initial residual = 0.0181175, Final residual = 2.26552e-06, No Iterations 5
DILUPBiCGStab:  Solving for Uz, Initial residual = 0.034518, Final residual = 1.64628e-05, No Iterations 5
linear solve U 22609824
[OGL LOG][Proc: 0]global_index_init: 0.01 [ms]
[OGL LOG][DevicePersistentBase.H:106] reading p_local_cols from registry
[OGL LOG][DevicePersistentBase.H:106] reading p_local_rows from registry
[OGL LOG][DevicePersistentBase.H:106] reading p_local_coeffs from registry
[OGL LOG][Proc: 0]call_update: 0 [ms]
[OGL LOG][DevicePersistentBase.H:106] reading p_ldu_csr_map from registry
[OGL LOG][DevicePersistentBase.H:106] reading p_non_local_cols from registry
[OGL LOG][DevicePersistentBase.H:106] reading p_non_local_rows from registry
[OGL LOG][DevicePersistentBase.H:106] reading p_non_local_coeffs from registry
[OGL LOG][Proc: 0]call_update: 0 [ms]
[OGL LOG][Proc: 0]update_local_matrix_data: 1227.75 [ms]
[OGL LOG][Proc: 0]update_non_local_matrix_data: 1.939 [ms]
[OGL LOG][DevicePersistentBase.H:106] reading device_partition from registry
[OGL LOG][DevicePersistentBase.H:106] reading p_matrix from registry
[OGL LOG][Proc: 0]call_update: 1387.16 [ms]
[...]
|  \\    /   O peration     | Version:  2112                                  |
|   \\  /    A nd           | Website:  www.openfoam.com                      |
|    \\/     M anipulation  |                                                 |
\*---------------------------------------------------------------------------*/
Build  : d44c8318f0-20220111 OPENFOAM=2112 version=v2112
Arch   : "LSB;label=32;scalar=64"
Exec   : icoFoam -parallel
Date   : Sep 29 2022
Time   : 13:45:46
Host   : hkn1151.localdomain
PID    : 214305
I/O    : uncollated
Case   : /hkfs/work/workspace/scratch/eq4036-lidDrivenCavity/single_node/mesh/250/matrix_solver/CG_NoPrecond_OpenFOAM_Default/mpiRank_of/76/base
nProcs : 76
Hosts  :
(
    (hkn1151.localdomain 76)
)
Pstream initialized with:
    floatTransfer      : 0
    nProcsSimpleSum    : 0
    commsType          : nonBlocking
    polling iterations : 0
trapFpe: Floating point exception trapping enabled (FOAM_SIGFPE).
fileModificationChecking : Monitoring run-time modified files using timeStampMaster (fileModificationSkew 5, maxFileModificationPolls 20)
allowSystemOperations : Allowing user-supplied system call operations

// * * * * * * * * * * * * * * * * * * * * * * * * * * * * * * * * * * * * * //
Create time

--> FOAM Warning : 
    From void* Foam::dlLibraryTable::openLibrary(const Foam::fileName&, bool)
    in file db/dynamicLibrary/dlLibraryTable/dlLibraryTable.C at line 188
    Could not load "libpetscFoam.so"
libcuda.so.1: cannot open shared object file: No such file or directory
Create mesh for time = 0


PISO: Operating solver in PISO mode

Reading transportProperties

Reading field p

Reading field U

Reading/calculating face flux field phi


Starting time loop

Time = 4e-05

Courant Number mean: 0 max: 0
DILUPBiCGStab:  Solving for Ux, Initial residual = 1, Final residual = 0.000693689, No Iterations 5
DILUPBiCGStab:  Solving for Uy:  solution singularity
DILUPBiCGStab:  Solving for Uz:  solution singularity
linear solve U 422826
nonePCG:  Solving for p, Initial residual = 1, Final residual = 9.95845e-05, No Iterations 2024
linear solve p 25298753
time step continuity errors : sum local = 4.82718e-10, global = -2.39105e-22, cumulative = -2.39105e-22
nonePCG:  Solving for p, Initial residual = 0.669037, Final residual = 9.93755e-05, No Iterations 1990
linear solve p 24233132
time step continuity errors : sum local = 6.78647e-10, global = -9.99881e-22, cumulative = -1.23899e-21
ExecutionTime = 51.55 s  ClockTime = 52 s

Time = 8e-05

Courant Number mean: 0.001426 max: 0.0690523
DILUPBiCGStab:  Solving for Ux, Initial residual = 0.180319, Final residual = 0.000426967, No Iterations 5
DILUPBiCGStab:  Solving for Uy, Initial residual = 0.336283, Final residual = 0.000333154, No Iterations 5
DILUPBiCGStab:  Solving for Uz, Initial residual = 0.994455, Final residual = 0.00133853, No Iterations 5
linear solve U 748561
nonePCG:  Solving for p, Initial residual = 0.56175, Final residual = 9.78777e-05, No Iterations 1960
linear solve p 23678738
time step continuity errors : sum local = 6.67037e-10, global = -1.27741e-21, cumulative = -2.51639e-21
nonePCG:  Solving for p, Initial residual = 0.474375, Final residual = 9.94513e-05, No Iterations 1954
linear solve p 23758287
time step continuity errors : sum local = 6.9671e-10, global = -1.22407e-21, cumulative = -3.74046e-21
ExecutionTime = 99.96 s  ClockTime = 101 s

Time = 0.00012

Courant Number mean: 0.00219179 max: 0.0832387
DILUPBiCGStab:  Solving for Ux, Initial residual = 0.0755365, Final residual = 0.00011889, No Iterations 5
DILUPBiCGStab:  Solving for Uy, Initial residual = 0.13706, Final residual = 9.20681e-05, No Iterations 5
DILUPBiCGStab:  Solving for Uz, Initial residual = 0.0998553, Final residual = 0.000188393, No Iterations 5
linear solve U 770737
nonePCG:  Solving for p, Initial residual = 0.347215, Final residual = 9.99783e-05, No Iterations 1909
linear solve p 23150500
time step continuity errors : sum local = 5.00611e-10, global = -1.3878e-21, cumulative = -5.12826e-21
nonePCG:  Solving for p, Initial residual = 0.292307, Final residual = 9.83225e-05, No Iterations 1903
linear solve p 23343573
time step continuity errors : sum local = 4.82912e-10, global = -1.23642e-21, cumulative = -6.36468e-21
ExecutionTime = 147.46 s  ClockTime = 149 s

Time = 0.00016

Courant Number mean: 0.0027205 max: 0.0875639
DILUPBiCGStab:  Solving for Ux, Initial residual = 0.0486734, Final residual = 4.94996e-05, No Iterations 5
DILUPBiCGStab:  Solving for Uy, Initial residual = 0.0860103, Final residual = 4.96236e-05, No Iterations 5
DILUPBiCGStab:  Solving for Uz, Initial residual = 0.111204, Final residual = 0.00015669, No Iterations 5
linear solve U 751081
nonePCG:  Solving for p, Initial residual = 0.167484, Final residual = 9.92389e-05, No Iterations 1872
linear solve p 22549349
time step continuity errors : sum local = 4.58725e-10, global = -1.19416e-21, cumulative = -7.55883e-21
nonePCG:  Solving for p, Initial residual = 0.135719, Final residual = 9.95914e-05, No Iterations 1863
linear solve p 22540386
time step continuity errors : sum local = 4.64653e-10, global = -1.42482e-21, cumulative = -8.98366e-21
ExecutionTime = 193.54 s  ClockTime = 195 s

Time = 0.0002

Courant Number mean: 0.00314353 max: 0.0896297
DILUPBiCGStab:  Solving for Ux, Initial residual = 0.0365199, Final residual = 2.30406e-05, No Iterations 5
DILUPBiCGStab:  Solving for Uy, Initial residual = 0.0622509, Final residual = 3.21433e-05, No Iterations 5
DILUPBiCGStab:  Solving for Uz, Initial residual = 0.0907348, Final residual = 8.95213e-05, No Iterations 5
linear solve U 744149
nonePCG:  Solving for p, Initial residual = 0.0880765, Final residual = 9.7584e-05, No Iterations 894
linear solve p 10901314
time step continuity errors : sum local = 4.59341e-10, global = -1.24716e-21, cumulative = -1.02308e-20
nonePCG:  Solving for p, Initial residual = 0.0725858, Final residual = 9.77704e-05, No Iterations 859
linear solve p 10403611
time step continuity errors : sum local = 4.38644e-10, global = -1.16912e-21, cumulative = -1.13999e-20
ExecutionTime = 216.05 s  ClockTime = 218 s

Time = 0.00024

Courant Number mean: 0.00350249 max: 0.0908924
DILUPBiCGStab:  Solving for Ux, Initial residual = 0.0294181, Final residual = 1.40277e-05, No Iterations 5
DILUPBiCGStab:  Solving for Uy, Initial residual = 0.0488617, Final residual = 1.98328e-05, No Iterations 5
DILUPBiCGStab:  Solving for Uz, Initial residual = 0.0775125, Final residual = 6.64756e-05, No Iterations 5
linear solve U 743907
nonePCG:  Solving for p, Initial residual = 0.0548292, Final residual = 9.9233e-05, No Iterations 844
linear solve p 10230008
time step continuity errors : sum local = 4.36077e-10, global = -1.17084e-21, cumulative = -1.25708e-20
nonePCG:  Solving for p, Initial residual = 0.0458911, Final residual = 9.96712e-05, No Iterations 820
linear solve p 9945172
time step continuity errors : sum local = 4.37275e-10, global = -9.80048e-22, cumulative = -1.35508e-20
ExecutionTime = 237.43 s  ClockTime = 240 s

Time = 0.00028

Courant Number mean: 0.00381743 max: 0.0917683
DILUPBiCGStab:  Solving for Ux, Initial residual = 0.0247211, Final residual = 9.65424e-06, No Iterations 5
DILUPBiCGStab:  Solving for Uy, Initial residual = 0.0401896, Final residual = 1.56558e-05, No Iterations 5
DILUPBiCGStab:  Solving for Uz, Initial residual = 0.0665394, Final residual = 4.81711e-05, No Iterations 5
linear solve U 765120
nonePCG:  Solving for p, Initial residual = 0.0364678, Final residual = 9.87058e-05, No Iterations 803
linear solve p 9779748
time step continuity errors : sum local = 4.4821e-10, global = -1.07527e-21, cumulative = -1.46261e-20
nonePCG:  Solving for p, Initial residual = 0.0314727, Final residual = 9.98359e-05, No Iterations 794
linear solve p 9634481
time step continuity errors : sum local = 4.40894e-10, global = -7.96727e-22, cumulative = -1.54228e-20
ExecutionTime = 258.12 s  ClockTime = 261 s

Time = 0.00032

Courant Number mean: 0.00409984 max: 0.0924225
DILUPBiCGStab:  Solving for Ux, Initial residual = 0.0213497, Final residual = 7.48374e-06, No Iterations 5
DILUPBiCGStab:  Solving for Uy, Initial residual = 0.0341205, Final residual = 1.21475e-05, No Iterations 5
DILUPBiCGStab:  Solving for Uz, Initial residual = 0.0580874, Final residual = 3.78136e-05, No Iterations 5
linear solve U 742049
nonePCG:  Solving for p, Initial residual = 0.025892, Final residual = 9.90268e-05, No Iterations 786
linear solve p 9616357
time step continuity errors : sum local = 4.34527e-10, global = -9.48593e-22, cumulative = -1.63714e-20
nonePCG:  Solving for p, Initial residual = 0.0228622, Final residual = 9.93338e-05, No Iterations 780
linear solve p 9471011
time step continuity errors : sum local = 4.35352e-10, global = -9.45292e-22, cumulative = -1.73167e-20
ExecutionTime = 278.43 s  ClockTime = 281 s

Time = 0.00036

Courant Number mean: 0.0043573 max: 0.0929352
DILUPBiCGStab:  Solving for Ux, Initial residual = 0.0188092, Final residual = 6.20998e-06, No Iterations 5
DILUPBiCGStab:  Solving for Uy, Initial residual = 0.0296248, Final residual = 1.02417e-05, No Iterations 5
DILUPBiCGStab:  Solving for Uz, Initial residual = 0.0518857, Final residual = 3.00835e-05, No Iterations 5
linear solve U 743852
nonePCG:  Solving for p, Initial residual = 0.0210505, Final residual = 9.99061e-05, No Iterations 766
linear solve p 9239114
time step continuity errors : sum local = 4.49551e-10, global = -6.3122e-22, cumulative = -1.79479e-20
nonePCG:  Solving for p, Initial residual = 0.0188619, Final residual = 9.92272e-05, No Iterations 758
linear solve p 9234928
time step continuity errors : sum local = 4.38896e-10, global = -8.20207e-22, cumulative = -1.87681e-20
ExecutionTime = 298.12 s  ClockTime = 301 s

Time = 0.0004

Courant Number mean: 0.00459408 max: 0.0933509
DILUPBiCGStab:  Solving for Ux, Initial residual = 0.0168169, Final residual = 5.39389e-06, No Iterations 5
DILUPBiCGStab:  Solving for Uy, Initial residual = 0.0261698, Final residual = 8.70016e-06, No Iterations 5
DILUPBiCGStab:  Solving for Uz, Initial residual = 0.0465972, Final residual = 2.4792e-05, No Iterations 5
linear solve U 744232
nonePCG:  Solving for p, Initial residual = 0.0171287, Final residual = 9.93423e-05, No Iterations 757
linear solve p 9158431
time step continuity errors : sum local = 4.38616e-10, global = -1.01182e-21, cumulative = -1.978e-20
nonePCG:  Solving for p, Initial residual = 0.0156038, Final residual = 9.90434e-05, No Iterations 752
linear solve p 9134614
time step continuity errors : sum local = 4.36787e-10, global = -9.51944e-22, cumulative = -2.07319e-20
ExecutionTime = 317.64 s  ClockTime = 321 s

Time = 0.00044

Courant Number mean: 0.00481427 max: 0.0936969
DILUPBiCGStab:  Solving for Ux, Initial residual = 0.0152127, Final residual = 4.80902e-06, No Iterations 5
DILUPBiCGStab:  Solving for Uy, Initial residual = 0.0234219, Final residual = 7.61363e-06, No Iterations 5
DILUPBiCGStab:  Solving for Uz, Initial residual = 0.0424456, Final residual = 2.05486e-05, No Iterations 5
linear solve U 760182
nonePCG:  Solving for p, Initial residual = 0.014802, Final residual = 9.81126e-05, No Iterations 749
linear solve p 9070538
time step continuity errors : sum local = 4.41131e-10, global = -9.83827e-22, cumulative = -2.17157e-20
nonePCG:  Solving for p, Initial residual = 0.0135425, Final residual = 9.92242e-05, No Iterations 740
linear solve p 8945854
time step continuity errors : sum local = 4.4058e-10, global = -8.8389e-22, cumulative = -2.25996e-20
ExecutionTime = 336.91 s  ClockTime = 340 s

Time = 0.00048

Courant Number mean: 0.00502003 max: 0.0939906
DILUPBiCGStab:  Solving for Ux, Initial residual = 0.0138887, Final residual = 4.3688e-06, No Iterations 5
DILUPBiCGStab:  Solving for Uy, Initial residual = 0.0211918, Final residual = 6.73124e-06, No Iterations 5
DILUPBiCGStab:  Solving for Uz, Initial residual = 0.0388179, Final residual = 1.77021e-05, No Iterations 5
linear solve U 736168
nonePCG:  Solving for p, Initial residual = 0.0129705, Final residual = 9.81125e-05, No Iterations 743
linear solve p 8968971
time step continuity errors : sum local = 4.35544e-10, global = -9.71275e-22, cumulative = -2.35709e-20
nonePCG:  Solving for p, Initial residual = 0.0119315, Final residual = 9.68563e-05, No Iterations 737
linear solve p 8999806
time step continuity errors : sum local = 4.29564e-10, global = -1.02288e-21, cumulative = -2.45938e-20
ExecutionTime = 356.1 s  ClockTime = 359 s

Time = 0.00052

Courant Number mean: 0.00521376 max: 0.094244
DILUPBiCGStab:  Solving for Ux, Initial residual = 0.012778, Final residual = 4.02334e-06, No Iterations 5
DILUPBiCGStab:  Solving for Uy, Initial residual = 0.0193398, Final residual = 6.0349e-06, No Iterations 5
DILUPBiCGStab:  Solving for Uz, Initial residual = 0.0358547, Final residual = 1.52626e-05, No Iterations 5
linear solve U 749424
nonePCG:  Solving for p, Initial residual = 0.0115205, Final residual = 9.6776e-05, No Iterations 737
linear solve p 8899411
time step continuity errors : sum local = 4.35501e-10, global = -6.50124e-22, cumulative = -2.52439e-20
nonePCG:  Solving for p, Initial residual = 0.0106309, Final residual = 9.96507e-05, No Iterations 728
linear solve p 8804032
time step continuity errors : sum local = 4.43963e-10, global = -5.2324e-22, cumulative = -2.57671e-20
ExecutionTime = 375.05 s  ClockTime = 379 s

Time = 0.00056

Courant Number mean: 0.00539669 max: 0.0944656
DILUPBiCGStab:  Solving for Ux, Initial residual = 0.011831, Final residual = 3.74557e-06, No Iterations 5
DILUPBiCGStab:  Solving for Uy, Initial residual = 0.0177819, Final residual = 5.45529e-06, No Iterations 5
DILUPBiCGStab:  Solving for Uz, Initial residual = 0.0332256, Final residual = 1.36128e-05, No Iterations 5
linear solve U 755288
nonePCG:  Solving for p, Initial residual = 0.0104164, Final residual = 9.9892e-05, No Iterations 736
linear solve p 8897509
time step continuity errors : sum local = 4.44921e-10, global = -7.00572e-22, cumulative = -2.64677e-20
nonePCG:  Solving for p, Initial residual = 0.00961131, Final residual = 9.7782e-05, No Iterations 728
linear solve p 8852075
time step continuity errors : sum local = 4.35337e-10, global = -9.13168e-22, cumulative = -2.73809e-20
ExecutionTime = 394.04 s  ClockTime = 398 s

Time = 0.0006

Courant Number mean: 0.00557054 max: 0.0946614
DILUPBiCGStab:  Solving for Ux, Initial residual = 0.0110154, Final residual = 3.51661e-06, No Iterations 5
DILUPBiCGStab:  Solving for Uy, Initial residual = 0.0164497, Final residual = 4.97135e-06, No Iterations 5
DILUPBiCGStab:  Solving for Uz, Initial residual = 0.0310151, Final residual = 1.21075e-05, No Iterations 5
linear solve U 736960
nonePCG:  Solving for p, Initial residual = 0.00942531, Final residual = 9.8558e-05, No Iterations 732
linear solve p 8884651
time step continuity errors : sum local = 4.43731e-10, global = -8.78166e-22, cumulative = -2.8259e-20
nonePCG:  Solving for p, Initial residual = 0.00872608, Final residual = 9.91779e-05, No Iterations 722
linear solve p 8790005
time step continuity errors : sum local = 4.4326e-10, global = -7.25826e-22, cumulative = -2.89849e-20
ExecutionTime = 412.98 s  ClockTime = 417 s

Time = 0.00064

Courant Number mean: 0.00573581 max: 0.0948361
DILUPBiCGStab:  Solving for Ux, Initial residual = 0.0103033, Final residual = 3.32348e-06, No Iterations 5
DILUPBiCGStab:  Solving for Uy, Initial residual = 0.0153005, Final residual = 4.55831e-06, No Iterations 5
DILUPBiCGStab:  Solving for Uz, Initial residual = 0.0290279, Final residual = 1.10546e-05, No Iterations 5
linear solve U 749860
nonePCG:  Solving for p, Initial residual = 0.00866363, Final residual = 9.99828e-05, No Iterations 743
linear solve p 9048528
time step continuity errors : sum local = 4.46567e-10, global = -7.55098e-22, cumulative = -2.974e-20
nonePCG:  Solving for p, Initial residual = 0.007984, Final residual = 9.84006e-05, No Iterations 725
linear solve p 8779329
time step continuity errors : sum local = 4.3943e-10, global = -5.34441e-22, cumulative = -3.02744e-20
ExecutionTime = 432.06 s  ClockTime = 436 s

Time = 0.00068

Courant Number mean: 0.00589397 max: 0.0949933
DILUPBiCGStab:  Solving for Ux, Initial residual = 0.00967703, Final residual = 3.15707e-06, No Iterations 5
DILUPBiCGStab:  Solving for Uy, Initial residual = 0.0142967, Final residual = 4.20398e-06, No Iterations 5
DILUPBiCGStab:  Solving for Uz, Initial residual = 0.0273109, Final residual = 1.00396e-05, No Iterations 5
linear solve U 751087
nonePCG:  Solving for p, Initial residual = 0.00793809, Final residual = 9.90593e-05, No Iterations 732
linear solve p 9011584
time step continuity errors : sum local = 4.46564e-10, global = -5.09222e-22, cumulative = -3.07836e-20
nonePCG:  Solving for p, Initial residual = 0.00732691, Final residual = 9.96987e-05, No Iterations 718
linear solve p 8795508
time step continuity errors : sum local = 4.46685e-10, global = -4.54158e-22, cumulative = -3.12378e-20
ExecutionTime = 451.13 s  ClockTime = 455 s

Time = 0.00072

Courant Number mean: 0.00604524 max: 0.0951356
DILUPBiCGStab:  Solving for Ux, Initial residual = 0.00912184, Final residual = 3.01004e-06, No Iterations 5
DILUPBiCGStab:  Solving for Uy, Initial residual = 0.0134143, Final residual = 3.89646e-06, No Iterations 5
DILUPBiCGStab:  Solving for Uz, Initial residual = 0.0257484, Final residual = 9.30786e-06, No Iterations 5
linear solve U 753537
nonePCG:  Solving for p, Initial residual = 0.00742542, Final residual = 9.99058e-05, No Iterations 758
linear solve p 9159364
time step continuity errors : sum local = 4.47239e-10, global = -6.5801e-22, cumulative = -3.18958e-20
nonePCG:  Solving for p, Initial residual = 0.00684209, Final residual = 9.92979e-05, No Iterations 725
linear solve p 8832208
time step continuity errors : sum local = 4.44513e-10, global = -1.02309e-21, cumulative = -3.29189e-20
ExecutionTime = 470.35 s  ClockTime = 475 s

Time = 0.00076

Courant Number mean: 0.00619044 max: 0.0952653
DILUPBiCGStab:  Solving for Ux, Initial residual = 0.00862567, Final residual = 2.87807e-06, No Iterations 5
DILUPBiCGStab:  Solving for Uy, Initial residual = 0.0126311, Final residual = 3.62685e-06, No Iterations 5
DILUPBiCGStab:  Solving for Uz, Initial residual = 0.0243586, Final residual = 8.57133e-06, No Iterations 5
linear solve U 751150
nonePCG:  Solving for p, Initial residual = 0.00691346, Final residual = 9.99875e-05, No Iterations 722
linear solve p 8812006
time step continuity errors : sum local = 4.51264e-10, global = -7.26633e-22, cumulative = -3.36455e-20
nonePCG:  Solving for p, Initial residual = 0.00637595, Final residual = 9.89891e-05, No Iterations 711
linear solve p 8645696
time step continuity errors : sum local = 4.44624e-10, global = -7.66212e-22, cumulative = -3.44117e-20
ExecutionTime = 489.05 s  ClockTime = 493 s

Time = 0.0008

Courant Number mean: 0.00633025 max: 0.0953841
DILUPBiCGStab:  Solving for Ux, Initial residual = 0.00818017, Final residual = 2.75741e-06, No Iterations 5
DILUPBiCGStab:  Solving for Uy, Initial residual = 0.0119322, Final residual = 3.3881e-06, No Iterations 5
DILUPBiCGStab:  Solving for Uz, Initial residual = 0.023092, Final residual = 8.02935e-06, No Iterations 5
linear solve U 748768
nonePCG:  Solving for p, Initial residual = 0.00649828, Final residual = 9.89978e-05, No Iterations 750
linear solve p 9098985
time step continuity errors : sum local = 4.44216e-10, global = -5.27797e-22, cumulative = -3.49395e-20
nonePCG:  Solving for p, Initial residual = 0.00599905, Final residual = 9.86127e-05, No Iterations 718
linear solve p 8761828
time step continuity errors : sum local = 4.42557e-10, global = -2.98339e-22, cumulative = -3.52379e-20
ExecutionTime = 508.13 s  ClockTime = 513 s

End

Finalising parallel run
================================================================================
