hash: a7f3853c57f88641b8280c805826ce0a
/*---------------------------------------------------------------------------*\
| =========                 |                                                 |
| \\      /  F ield         | OpenFOAM: The Open Source CFD Toolbox           |
|  \\    /   O peration     | Version:  2112                                  |
|   \\  /    A nd           | Website:  www.openfoam.com                      |
|    \\/     M anipulation  |                                                 |
\*---------------------------------------------------------------------------*/
Build  : d44c8318f0-20220111 OPENFOAM=2112 version=v2112
Arch   : "LSB;label=32;scalar=64"
Exec   : icoFoam -parallel
Date   : Sep 29 2022
Time   : 13:51:45
Host   : hkn0025.localdomain
PID    : 2327711
I/O    : uncollated
Case   : /hkfs/work/workspace/scratch/eq4036-lidDrivenCavity/single_node/mesh/400/matrix_solver/CG_NoPrecond_PETSC_Default/mpiRank_of/76/base
nProcs : 76
Hosts  :
(
    (hkn0025.localdomain 76)
)
Pstream initialized with:
    floatTransfer      : 0
    nProcsSimpleSum    : 0
    commsType          : nonBlocking
    polling iterations : 0
trapFpe: Floating point exception trapping enabled (FOAM_SIGFPE).
fileModificationChecking : Monitoring run-time modified files using timeStampMaster (fileModificationSkew 5, maxFileModificationPolls 20)
allowSystemOperations : Allowing user-supplied system call operations

// * * * * * * * * * * * * * * * * * * * * * * * * * * * * * * * * * * * * * //
Create time

--> FOAM Warning : 
    From void* Foam::dlLibraryTable::openLibrary(const Foam::fileName&, bool)
    in file db/dynamicLibrary/dlLibraryTable/dlLibraryTable.C at line 188
    Could not load "libpetscFoam.so"
libcuda.so.1: cannot open shared object file: No such file or directory
Create mesh for time = 0


PISO: Operating solver in PISO mode

Reading transportProperties

Reading field p

Reading field U

Reading/calculating face flux field phi


Starting time loop

Time = 2.5e-05

Courant Number mean: 0 max: 0
DILUPBiCGStab:  Solving for Ux, Initial residual = 1, Final residual = 0.00226094, No Iterations 5
DILUPBiCGStab:  Solving for Uy:  solution singularity
DILUPBiCGStab:  Solving for Uz:  solution singularity
linear solve U 1596652
================================================================================
hash: 276aa5f8f881b5acb8ae919abdece382
/*---------------------------------------------------------------------------*\
| =========                 |                                                 |
| \\      /  F ield         | OpenFOAM: The Open Source CFD Toolbox           |
|  \\    /   O peration     | Version:  2112                                  |
|   \\  /    A nd           | Website:  www.openfoam.com                      |
|    \\/     M anipulation  |                                                 |
\*---------------------------------------------------------------------------*/
Build  : d44c8318f0-20220111 OPENFOAM=2112 version=v2112
Arch   : "LSB;label=32;scalar=64"
Exec   : icoFoam -parallel
Date   : Oct 04 2022
Time   : 14:20:04
Host   : hkn0422.localdomain
PID    : 2312209
I/O    : uncollated
Case   : /hkfs/work/workspace/scratch/eq4036-lidDrivenCavity/single_node/mesh/400/matrix_solver/CG_NoPrecond_PETSC_CUDA/mpiRank_of/4/base
nProcs : 4
Hosts  :
(
    (hkn0422.localdomain 4)
)
Pstream initialized with:
    floatTransfer      : 0
    nProcsSimpleSum    : 0
    commsType          : nonBlocking
    polling iterations : 0
trapFpe: Floating point exception trapping enabled (FOAM_SIGFPE).
fileModificationChecking : Monitoring run-time modified files using timeStampMaster (fileModificationSkew 5, maxFileModificationPolls 20)
allowSystemOperations : Allowing user-supplied system call operations

// * * * * * * * * * * * * * * * * * * * * * * * * * * * * * * * * * * * * * //
Create time

Create mesh for time = 0


PISO: Operating solver in PISO mode

Reading transportProperties

Reading field p

Reading field U

Reading/calculating face flux field phi


Starting time loop

Time = 2.5e-05

Courant Number mean: 0 max: 0
DILUPBiCGStab:  Solving for Ux, Initial residual = 1, Final residual = 0.00118713, No Iterations 5
DILUPBiCGStab:  Solving for Uy:  solution singularity
DILUPBiCGStab:  Solving for Uz:  solution singularity
linear solve U 11107273
Initializing PETSc
PETSc-cg:  Solving for p, Initial residual = 1, Final residual = 9.99568e-05, No Iterations 3256
linear solve p 17191235
time step continuity errors : sum local = 2.40992e-10, global = 1.93226e-23, cumulative = 1.93226e-23
PETSc-cg:  Solving for p, Initial residual = 0.716144, Final residual = 9.90851e-05, No Iterations 3237
linear solve p 12861866
time step continuity errors : sum local = 3.22366e-10, global = -1.50296e-23, cumulative = 4.29294e-24
ExecutionTime = 110.59 s  ClockTime = 111 s

Time = 5e-05

Courant Number mean: 0.00116777 max: 0.0751289
DILUPBiCGStab:  Solving for Ux, Initial residual = 0.159858, Final residual = 0.000699206, No Iterations 5
DILUPBiCGStab:  Solving for Uy, Initial residual = 0.348607, Final residual = 0.000549935, No Iterations 5
DILUPBiCGStab:  Solving for Uz, Initial residual = 0.997103, Final residual = 0.00258441, No Iterations 5
linear solve U 22310283
PETSc-cg:  Solving for p, Initial residual = 0.6549, Final residual = 9.91431e-05, No Iterations 3180
linear solve p 12643020
time step continuity errors : sum local = 3.48135e-10, global = 4.66344e-23, cumulative = 5.09274e-23
PETSc-cg:  Solving for p, Initial residual = 0.580434, Final residual = 9.87729e-05, No Iterations 3175
linear solve p 12618391
time step continuity errors : sum local = 3.52812e-10, global = 4.30207e-24, cumulative = 5.52295e-23
ExecutionTime = 174.1 s  ClockTime = 175 s

Time = 7.5e-05

Courant Number mean: 0.00178106 max: 0.0870165
DILUPBiCGStab:  Solving for Ux, Initial residual = 0.0661404, Final residual = 0.000197637, No Iterations 5
DILUPBiCGStab:  Solving for Uy, Initial residual = 0.138167, Final residual = 0.000139212, No Iterations 5
DILUPBiCGStab:  Solving for Uz, Initial residual = 0.430577, Final residual = 0.00127506, No Iterations 5
linear solve U 22334565
PETSc-cg:  Solving for p, Initial residual = 0.55682, Final residual = 9.99626e-05, No Iterations 3133
linear solve p 12454897
time step continuity errors : sum local = 2.52875e-10, global = -3.20979e-23, cumulative = 2.31316e-23
PETSc-cg:  Solving for p, Initial residual = 0.499731, Final residual = 9.98415e-05, No Iterations 3123
linear solve p 12393876
time step continuity errors : sum local = 2.47345e-10, global = -2.36795e-23, cumulative = -5.47926e-25
ExecutionTime = 237.2 s  ClockTime = 238 s

Time = 0.0001

Courant Number mean: 0.00220834 max: 0.0903159
DILUPBiCGStab:  Solving for Ux, Initial residual = 0.0436882, Final residual = 8.49395e-05, No Iterations 5
DILUPBiCGStab:  Solving for Uy, Initial residual = 0.0871973, Final residual = 5.74933e-05, No Iterations 5
DIDILUPBiCGStab:  Solving for Uz, Initial residual = 0.132543, Final residual = 0.000248578, No Iterations 5
linear solve U 3019898PEPETSc-cg:  Solving for p, Initial residual = 0.320107, Final residual = 9.99507e-05, No Iterations 1487
linear solve p 636791titime step continuity errors : sum local = 2.30086e-10, global = 3.86694e-23, cumulative = 3.81215e-2PEPETSc-cg:  Solving for p, Initial residual = 0.265675, Final residual = 9.79137e-05, No Iterations 1466
linear solve p 629149titime step continuity errors : sum local = 2.16847e-10, global = -5.65197e-23, cumulative = -1.83982e-2ExExecutionTime = 295.9 s  ClockTime = 298 s

Time = 0.000125
CCourant Number mean: 0.00255413 max: 0.0919042DDILUPBiCGStab:  Solving for Ux, Initial residual = 0.0332524, Final residual = 5.10828e-05, No Iterations 5DDILUPBiCGStab:  Solving for Uy, Initial residual = 0.0630107, Final residual = 3.67645e-05, No Iterations 5DDILUPBiCGStab:  Solving for Uz, Initial residual = 0.0910234, Final residual = 0.000139387, No Iterations 5
linear solve U 30307654PPETSc-cg:  Solving for p, Initial residual = 0.213943, Final residual = 9.96404e-05, No Iterations 1436
linear solve p 6178070
time step continuity errors : sum local = 1.92419e-10, global = 3.83676e-23, cumulative = 1.99694e-23PPETSc-cg:  Solving for p, Initial residual = 0.180194, Final residual = 9.77144e-05, No Iterations 1433
linear solve p 6147589
time step continuity errors : sum local = 1.85674e-10, global = 1.55588e-23, cumulative = 3.55281e-23
ExecutionTime = 354.38 s  ClockTime = 356 s

Time = 0.00015

Courant Number mean: 0.00284935 max: 0.0928888DDILUPBiCGStab:  Solving for Ux, Initial residual = 0.0270466, Final residual = 3.35989e-05, No Iterations 5
DILUPBiCGStab:  Solving for Uy, Initial residual = 0.0494904, Final residual = 1.57018e-05, No Iterations 5
DILUPBiCGStab:  Solving for Uz, Initial residual = 0.0794061, Final residual = 0.00010523, No Iterations 5
linear solve U 30187329
PETSc-cg:  Solving for p, Initial residual = 0.12744, Final residual = 9.88582e-05, No Iterations 1450
linear solve p 6228012
time step continuity errors : sum local = 1.97541e-10, global = -3.06115e-23, cumulative = 4.91664e-24
PETSc-cg:  Solving for p, Initial residual = 0.104997, Final residual = 9.90705e-05, No Iterations 1374
linear solve p 5954616
time step continuity errors : sum local = 1.8878e-10, global = -4.56772e-23, cumulative = -4.07605e-23
ExecutionTime = 412.66 s  ClockTime = 415 s

Time = 0.000175

Courant Number mean: 0.00310981 max: 0.0935747
DILUPBiCGStab:  Solving for Ux, Initial residual = 0.0228825, Final residual = 2.37574e-05, No Iterations 5
DILUPBiCGStab:  Solving for Uy, Initial residual = 0.0407639, Final residual = 1.42395e-05, No Iterations 5
DILUPBiCGStab:  Solving for Uz, Initial residual = 0.0674738, Final residual = 6.92919e-05, No Iterations 5
linear solve U 30298989
PETSc-cg:  Solving for p, Initial residual = 0.0871436, Final residual = 9.99367e-05, No Iterations 1426
linear solve p 6119965
time step continuity errors : sum local = 1.85716e-10, global = -2.68672e-23, cumulative = -6.76278e-23
PETSc-cg:  Solving for p, Initial residual = 0.0725682, Final residual = 9.95145e-05, No Iterations 1379
linear solve p 5967655
time step continuity errors : sum local = 1.78983e-10, global = 1.15541e-22, cumulative = 4.79134e-23
ExecutionTime = 470.92 s  ClockTime = 473 s

Time = 0.0002

Courant Number mean: 0.00334434 max: 0.094089
DILUPBiCGStab:  Solving for Ux, Initial residual = 0.0198933, Final residual = 1.84317e-05, No Iterations 5
DILUPBiCGStab:  Solving for Uy, Initial residual = 0.0346056, Final residual = 6.60725e-06, No Iterations 5
DILUPBiCGStab:  Solving for Uz, Initial residual = 0.06039, Final residual = 5.09954e-05, No Iterations 5
linear solve U 30170636
PETSc-cg:  Solving for p, Initial residual = 0.0554771, Final residual = 9.96305e-05, No Iterations 2976
linear solve p 11867526
time step continuity errors : sum local = 1.7618e-10, global = 3.59754e-23, cumulative = 8.38888e-23
PETSc-cg:  Solving for p, Initial residual = 0.0472305, Final residual = 9.82136e-05, No Iterations 1441
linear solve p 6193229
time step continuity errors : sum local = 1.89178e-10, global = -4.04259e-23, cumulative = 4.3463e-23
ExecutionTime = 535.06 s  ClockTime = 537 s

Time = 0.000225

Courant Number mean: 0.00355866 max: 0.0944924
DILUPBiCGStab:  Solving for Ux, Initial residual = 0.0176051, Final residual = 1.42018e-05, No Iterations 5
DILUPBiCGStab:  Solving for Uy, Initial residual = 0.0301065, Final residual = 6.61824e-06, No Iterations 5
DILUPBiCGStab:  Solving for Uz, Initial residual = 0.0551812, Final residual = 5.00106e-05, No Iterations 5
linear solve U 30345492
PETSc-cg:  Solving for p, Initial residual = 0.0410965, Final residual = 9.97647e-05, No Iterations 2957
linear solve p 11798239
time step continuity errors : sum local = 1.75094e-10, global = -1.2592e-22, cumulative = -8.2457e-23
PETSc-cg:  Solving for p, Initial residual = 0.0352652, Final residual = 9.9924e-05, No Iterations 2942
linear solve p 11742209
time step continuity errors : sum local = 1.75436e-10, global = 7.09708e-23, cumulative = -1.14862e-23
ExecutionTime = 604.78 s  ClockTime = 607 s

Time = 0.00025

Courant Number mean: 0.00375674 max: 0.0948201
DILUPBiCGStab:  Solving for Ux, Initial residual = 0.0158199, Final residual = 1.1564e-05, No Iterations 5
DILUPBiCGStab:  Solving for Uy, Initial residual = 0.0265883, Final residual = 4.02783e-06, No Iterations 5
DILUPBiCGStab:  Solving for Uz, Initial residual = 0.0468496, Final residual = 3.32689e-05, No Iterations 5
linear solve U 30246896
PETSc-cg:  Solving for p, Initial residual = 0.0294955, Final residual = 9.95421e-05, No Iterations 1275
linear solve p 5567486
time step continuity errors : sum local = 1.88116e-10, global = 3.74222e-23, cumulative = 2.5936e-23
PETSc-cg:  Solving for p, Initial residual = 0.0259889, Final residual = 9.98443e-05, No Iterations 1238
linear solve p 5443569
time step continuity errors : sum local = 1.80449e-10, global = 4.67357e-23, cumulative = 7.26717e-23
ExecutionTime = 661.91 s  ClockTime = 665 s

Time = 0.000275

Courant Number mean: 0.00394124 max: 0.0950931
DILUPBiCGStab:  Solving for Ux, Initial residual = 0.0143628, Final residual = 9.41863e-06, No Iterations 5
DILUPBiCGStab:  Solving for Uy, Initial residual = 0.0238301, Final residual = 3.84038e-06, No Iterations 5
DILUPBiCGStab:  Solving for Uz, Initial residual = 0.0433918, Final residual = 2.72532e-05, No Iterations 5
linear solve U 30359346
PETSc-cg:  Solving for p, Initial residual = 0.0236657, Final residual = 9.97431e-05, No Iterations 1310
linear solve p 5690315
time step continuity errors : sum local = 1.8179e-10, global = -1.31716e-23, cumulative = 5.95001e-23
PETSc-cg:  Solving for p, Initial residual = 0.0211884, Final residual = 9.94149e-05, No Iterations 1257
linear solve p 5516075
time step continuity errors : sum local = 1.73949e-10, global = -4.87579e-23, cumulative = 1.07423e-23
ExecutionTime = 719.35 s  ClockTime = 722 s

Time = 0.0003

Courant Number mean: 0.00411426 max: 0.095325
DILUPBiCGStab:  Solving for Ux, Initial residual = 0.0131683, Final residual = 7.84018e-06, No Iterations 5
DILUPBiCGStab:  Solving for Uy, Initial residual = 0.0215589, Final residual = 2.9151e-06, No Iterations 5
DILUPBiCGStab:  Solving for Uz, Initial residual = 0.0406377, Final residual = 2.47967e-05, No Iterations 5
linear solve U 30219301
PETSc-cg:  Solving for p, Initial residual = 0.0186952, Final residual = 9.90754e-05, No Iterations 1435
linear solve p 6154588
time step continuity errors : sum local = 1.90291e-10, global = 3.6458e-23, cumulative = 4.72003e-23
PETSc-cg:  Solving for p, Initial residual = 0.0171578, Final residual = 9.98082e-05, No Iterations 1346
linear solve p 5844418
time step continuity errors : sum local = 1.81153e-10, global = -5.6923e-23, cumulative = -9.72269e-24
ExecutionTime = 777.41 s  ClockTime = 780 s

Time = 0.000325

Courant Number mean: 0.00427751 max: 0.0955253
DILUPBiCGStab:  Solving for Ux, Initial residual = 0.0121499, Final residual = 6.56478e-06, No Iterations 5
DILUPBiCGStab:  Solving for Uy, Initial residual = 0.0197087, Final residual = 2.66557e-06, No Iterations 5
DILUPBiCGStab:  Solving for Uz, Initial residual = 0.0377249, Final residual = 2.38524e-05, No Iterations 5
linear solve U 30297007
PETSc-cg:  Solving for p, Initial residual = 0.0162891, Final residual = 9.88033e-05, No Iterations 1369
linear solve p 5911315
time step continuity errors : sum local = 1.84284e-10, global = -5.84326e-23, cumulative = -6.81552e-23
PETSc-cg:  Solving for p, Initial residual = 0.0150527, Final residual = 9.96534e-05, No Iterations 1279
linear solve p 5587536
time step continuity errors : sum local = 1.75248e-10, global = 9.6806e-24, cumulative = -5.84746e-23
ExecutionTime = 835.15 s  ClockTime = 838 s

Time = 0.00035

Courant Number mean: 0.00443218 max: 0.0957003
DILUPBiCGStab:  Solving for Ux, Initial residual = 0.0112931, Final residual = 5.5702e-06, No Iterations 5
DILUPBiCGStab:  Solving for Uy, Initial residual = 0.0181141, Final residual = 2.24692e-06, No Iterations 5
DILUPBiCGStab:  Solving for Uz, Initial residual = 0.0353178, Final residual = 2.37029e-05, No Iterations 5
linear solve U 30260791
PETSc-cg:  Solving for p, Initial residual = 0.014031, Final residual = 9.9371e-05, No Iterations 2903
linear solve p 11579036
time step continuity errors : sum local = 1.73197e-10, global = -4.4658e-23, cumulative = -1.03133e-22
PETSc-cg:  Solving for p, Initial residual = 0.0131357, Final residual = 9.97845e-05, No Iterations 2899
linear solve p 11580314
time step continuity errors : sum local = 1.74009e-10, global = -1.47515e-22, cumulative = -2.50647e-22
ExecutionTime = 904.51 s  ClockTime = 908 s

Time = 0.000375

Courant Number mean: 0.00457926 max: 0.0958553
DILUPBiCGStab:  Solving for Ux, Initial residual = 0.0105407, Final residual = 4.76274e-06, No Iterations 5
DILUPBiCGStab:  Solving for Uy, Initial residual = 0.0167768, Final residual = 2.03857e-06, No Iterations 5
DILUPBiCGStab:  Solving for Uz, Initial residual = 0.0312998, Final residual = 1.40455e-05, No Iterations 5
linear solve U 30332526
PETSc-cg:  Solving for p, Initial residual = 0.0127083, Final residual = 9.9742e-05, No Iterations 1182
linear solve p 5215208
time step continuity errors : sum local = 1.78866e-10, global = -1.48799e-22, cumulative = -3.99446e-22
PETSc-cg:  Solving for p, Initial residual = 0.0119415, Final residual = 9.93626e-05, No Iterations 1172
linear solve p 5199697
time step continuity errors : sum local = 1.75351e-10, global = 8.78242e-23, cumulative = -3.11622e-22
ExecutionTime = 961.13 s  ClockTime = 965 s

Time = 0.0004

Courant Number mean: 0.00471974 max: 0.0959935
DILUPBiCGStab:  Solving for Ux, Initial residual = 0.00988792, Final residual = 4.11492e-06, No Iterations 5
DILUPBiCGStab:  Solving for Uy, Initial residual = 0.0156099, Final residual = 1.84565e-06, No Iterations 5
DILUPBiCGStab:  Solving for Uz, Initial residual = 0.029745, Final residual = 1.03833e-05, No Iterations 5
linear solve U 30159569
PETSc-cg:  Solving for p, Initial residual = 0.0113714, Final residual = 9.97618e-05, No Iterations 1187
linear solve p 5237411
time step continuity errors : sum local = 1.79497e-10, global = -3.93751e-24, cumulative = -3.15559e-22
PETSc-cg:  Solving for p, Initial residual = 0.0107655, Final residual = 9.97299e-05, No Iterations 1173
linear solve p 5196782
time step continuity errors : sum local = 1.75024e-10, global = -1.13059e-22, cumulative = -4.28618e-22
ExecutionTime = 1017.7 s  ClockTime = 1021 s

Time = 0.000425

Courant Number mean: 0.00485411 max: 0.0961178
DILUPBiCGStab:  Solving for Ux, Initial residual = 0.00930808, Final residual = 3.59086e-06, No Iterations 5
DILUPBiCGStab:  Solving for Uy, Initial residual = 0.0146024, Final residual = 1.68664e-06, No Iterations 5
DILUPBiCGStab:  Solving for Uz, Initial residual = 0.0279347, Final residual = 1.05303e-05, No Iterations 5
linear solve U 30357445
PETSc-cg:  Solving for p, Initial residual = 0.0103044, Final residual = 9.96319e-05, No Iterations 1305
linear solve p 5669461
time step continuity errors : sum local = 1.80558e-10, global = 6.37381e-23, cumulative = -3.6488e-22
PETSc-cg:  Solving for p, Initial residual = 0.00976635, Final residual = 9.95567e-05, No Iterations 1274
linear solve p 5575035
time step continuity errors : sum local = 1.76228e-10, global = 4.57281e-23, cumulative = -3.19152e-22
ExecutionTime = 1075.18 s  ClockTime = 1079 s

Time = 0.00045

Courant Number mean: 0.00498313 max: 0.0962305
DILUPBiCGStab:  Solving for Ux, Initial residual = 0.00879802, Final residual = 3.16341e-06, No Iterations 5
DILUPBiCGStab:  Solving for Uy, Initial residual = 0.0137038, Final residual = 1.52968e-06, No Iterations 5
DILUPBiCGStab:  Solving for Uz, Initial residual = 0.0266951, Final residual = 1.0323e-05, No Iterations 5
linear solve U 30220623
PETSc-cg:  Solving for p, Initial residual = 0.00951857, Final residual = 9.87352e-05, No Iterations 1298
linear solve p 5646036
time step continuity errors : sum local = 1.79916e-10, global = 1.71736e-22, cumulative = -1.47415e-22
PETSc-cg:  Solving for p, Initial residual = 0.00903828, Final residual = 9.99758e-05, No Iterations 1217
linear solve p 5368945
time step continuity errors : sum local = 1.76254e-10, global = -1.69926e-22, cumulative = -3.17342e-22
ExecutionTime = 1132.32 s  ClockTime = 1136 s

Time = 0.000475

Courant Number mean: 0.00510714 max: 0.0963332
DILUPBiCGStab:  Solving for Ux, Initial residual = 0.00833534, Final residual = 2.8118e-06, No Iterations 5
DILUPBiCGStab:  Solving for Uy, Initial residual = 0.0129194, Final residual = 1.40108e-06, No Iterations 5
DILUPBiCGStab:  Solving for Uz, Initial residual = 0.0252549, Final residual = 1.07464e-05, No Iterations 5
linear solve U 30315695
PETSc-cg:  Solving for p, Initial residual = 0.00891194, Final residual = 9.96556e-05, No Iterations 1310
linear solve p 5698978
time step continuity errors : sum local = 1.83157e-10, global = 1.13039e-22, cumulative = -2.04303e-22
PETSc-cg:  Solving for p, Initial residual = 0.00846096, Final residual = 9.9887e-05, No Iterations 1284
linear solve p 5613013
time step continuity errors : sum local = 1.77563e-10, global = -3.27423e-23, cumulative = -2.37045e-22
ExecutionTime = 1189.81 s  ClockTime = 1194 s

Time = 0.0005

Courant Number mean: 0.00522673 max: 0.0964273
DILUPBiCGStab:  Solving for Ux, Initial residual = 0.00792604, Final residual = 2.51919e-06, No Iterations 5
DILUPBiCGStab:  Solving for Uy, Initial residual = 0.0122035, Final residual = 1.28424e-06, No Iterations 5
DILUPBiCGStab:  Solving for Uz, Initial residual = 0.0241053, Final residual = 1.1035e-05, No Iterations 5
linear solve U 30224573
PETSc-cg:  Solving for p, Initial residual = 0.00833041, Final residual = 9.87536e-05, No Iterations 1296
linear solve p 5636742
time step continuity errors : sum local = 1.82901e-10, global = -4.51227e-23, cumulative = -2.82168e-22
PETSc-cg:  Solving for p, Initial residual = 0.0079192, Final residual = 9.98855e-05, No Iterations 1180
linear solve p 5209589
time step continuity errors : sum local = 1.77129e-10, global = 3.31024e-23, cumulative = -2.49066e-22
ExecutionTime = 1246.8 s  ClockTime = 1251 s

End

Finalizing PETSc
Finalising parallel run
================================================================================
hash: fae0850ae32ed236817bdc8c28e19ead
/*---------------------------------------------------------------------------*\
| =========                 |                                                 |
| \\      /  F ield         | OpenFOAM: The Open Source CFD Toolbox           |
|  \\    /   O peration     | Version:  2112                                  |
|   \\  /    A nd           | Website:  www.openfoam.com                      |
|    \\/     M anipulation  |                                                 |
\*---------------------------------------------------------------------------*/
Build  : d44c8318f0-20220111 OPENFOAM=2112 version=v2112
Arch   : "LSB;label=32;scalar=64"
Exec   : icoFoam -parallel
Date   : Oct 04 2022
Time   : 14:19:55
Host   : hkn0607.localdomain
PID    : 1352327
I/O    : uncollated
Case   : /hkfs/work/workspace/scratch/eq4036-lidDrivenCavity/single_node/mesh/400/matrix_solver/CG_NoPrecond_Ginkgo_CUDA/mpiRank_gko/4/base
nProcs : 4
Hosts  :
(
    (hkn0607.localdomain 4)
)
Pstream initialized with:
    floatTransfer      : 0
    nProcsSimpleSum    : 0
    commsType          : nonBlocking
    polling iterations : 0
trapFpe: Floating point exception trapping enabled (FOAM_SIGFPE).
fileModificationChecking : Monitoring run-time modified files using timeStampMaster (fileModificationSkew 5, maxFileModificationPolls 20)
allowSystemOperations : Allowing user-supplied system call operations

// * * * * * * * * * * * * * * * * * * * * * * * * * * * * * * * * * * * * * //
Create time

Create mesh for time = 0


PISO: Operating solver in PISO mode

Reading transportProperties

Reading field p

Reading field U

Reading/calculating face flux field phi


Starting time loop

Time = 2.5e-05

Courant Number mean: 0 max: 0
DILUPBiCGStab:  Solving for Ux, Initial residual = 1, Final residual = 0.00118713, No Iterations 5
DILUPBiCGStab:  Solving for Uy:  solution singularity
DILUPBiCGStab:  Solving for Uz:  solution singularity
linear solve U 11384468
[OGL LOG][lduLduBase.H:107] Initialising OGL
	Version:  1c3dcec
	Branch: distributed-update 
	Ginkgo version: 1.5.0(develop)
	MPI is GPU aware: 1
	Forces host buffer based communication: 1
	CPU ranks per GPU: 1
	Matrix format: Coo
[OGL LOG][Proc: 0]global_index_init: 0.966 [ms]
[OGL LOG][DevicePersistentBase.H:123] initialising p_local_cols
[OGL LOG][Proc: 0]call_init: 0 [ms]
[OGL LOG][DevicePersistentBase.H:123] initialising p_local_rows
[OGL LOG][Proc: 0]call_init: 0 [ms]
[OGL LOG][DevicePersistentBase.H:123] initialising p_local_coeffs
[OGL LOG][Proc: 0]call_init: 0 [ms]
[OGL LOG][DevicePersistentBase.H:123] initialising p_ldu_csr_map
[OGL LOG][Proc: 0]call_init: 0 [ms]
[OGL LOG][DevicePersistentBase.H:123] initialising p_non_local_cols
[OGL LOG][Proc: 0]call_init: 0 [ms]
[OGL LOG][DevicePersistentBase.H:123] initialising p_non_local_rows
[OGL LOG][Proc: 0]call_init: 0 [ms]
[OGL LOG][DevicePersistentBase.H:123] initialising p_non_local_coeffs
[OGL LOG][Proc: 0]call_init: 0 [ms]
[OGL LOG][Proc: 0]init_local_sparsity_pattern: 2815.6 [ms]
[OGL LOG][Proc: 0]init_non_local_sparsity_pattern: 150.748 [ms]
[OGL LOG][Proc: 0]update_local_matrix_data: 1381.34 [ms]
[OGL LOG][Proc: 0]update_non_local_matrix_data: 1.899 [ms]
[OGL LOG][DevicePersistentBase.H:123] initialising device_partition
[OGL LOG][Proc: 0]call_init: 0 [ms]
[OGL LOG][DevicePersistentBase.H:123] initialising p_matrix
[OGL LOG][Proc: 0]call_init: 0 [ms]
[OGL LOG][DevicePersistentBase.H:123] initialising p_rhs
[OGL LOG][Proc: 0]call_init: 0 [ms]
[OGL LOG][DevicePersistentBase.H:123] initialising p_solution
[OGL LOG][Proc: 0]call_init: 0 [ms]
[OGL LOG][Proc: 0]init_precond: 0.126 [ms]
[OGL LOG][StoppingCriterion.H:588] Creating stopping criterion with minIter 0 frequency 10
[OGL LOG][Proc: 0]generate_solver: 0.045 [ms]
[OGL LOG][Proc: 0]solve: 17735.4 [ms]
[OGL LOG][Proc: 0]copy_x_back: 63.492 [ms]
[OGL LOG][lduLduBase.H:297] 
Statistics:
	Time per iteration: 5438 [mu s]
	Time per residual norm calculation: 289.000000 [mu s]
	Time per iteration and DOF: 0.084969 [ns]
	Retrieve results bandwith 2.016000 [GByte/s]
nonecudaGKOCG:  Solving for p, Initial residual = 1, Final residual = 9.31972e-05, No Iterations 3261
linear solve p 25711264
time step continuity errors : sum local = 2.24695e-10, global = -1.25616e-24, cumulative = -1.25616e-24
[OGL LOG][Proc: 0]global_index_init: 0.011 [ms]
[OGL LOG][DevicePersistentBase.H:106] reading p_local_cols from registry
[OGL LOG][DevicePersistentBase.H:106] reading p_local_rows from registry
[OGL LOG][DevicePersistentBase.H:106] reading p_local_coeffs from registry
[OGL LOG][Proc: 0]call_update: 0.001 [ms]
[OGL LOG][DevicePersistentBase.H:106] reading p_ldu_csr_map from registry
[OGL LOG][DevicePersistentBase.H:106] reading p_non_local_cols from registry
[OGL LOG][DevicePersistentBase.H:106] reading p_non_local_rows from registry
[OGL LOG][DevicePersistentBase.H:106] reading p_non_local_coeffs from registry
[OGL LOG][Proc: 0]call_update: 0 [ms]
[OGL LOG][Proc: 0]update_local_matrix_data: 1198.67 [ms]
[OGL LOG][Proc: 0]update_non_local_matrix_data: 2.043 [ms]
[OGL LOG][DevicePersistentBase.H:106] reading device_partition from registry
[OGL LOG][DevicePersistentBase.H:106] reading p_matrix from registry
[OGL LOG][Proc: 0]call_update: 1373.71 [ms]
[OGL LOG][DevicePersistentBase.H:106] reading p_rhs from registry
[OGL LOG][Proc: 0]call_update: 86.064 [ms]
[OGL LOG][DevicePersistentBase.H:106] reading p_solution from registry
[OGL LOG][Proc: 0]init_precond: 0.034 [ms]
[OGL LOG][StoppingCriterion.H:588] Creating stopping criterion with minIter 1956 frequency 10
[OGL LOG][Proc: 0]generate_solver: 0.001 [ms]
[OGL LOG][Proc: 0]solve: 17811.7 [ms]
[OGL LOG][Proc: 0]copy_x_back: 64.112 [ms]
[OGL LOG][lduLduBase.H:297] 
Statistics:
	Time per iteration: 5495 [mu s]
	Time per residual norm calculation: 193.000000 [mu s]
	Time per iteration and DOF: 0.085859 [ns]
	Retrieve results bandwith 1.996000 [GByte/s]
nonecudaGKOCG:  Solving for p, Initial residual = 0.716144, Final residual = 9.36605e-05, No Iterations 3241
linear solve p 20650231
time step continuity errors : sum local = 3.04716e-10, global = 3.79299e-23, cumulative = 3.66737e-23
ExecutionTime = 127.34 s  ClockTime = 131 s

Time = 5e-05

Courant Number mean: 0.00116777 max: 0.0751289
DILUPBiCGStab:  Solving for Ux, Initial residual = 0.159858, Final residual = 0.000699206, No Iterations 5
DILUPBiCGStab:  Solving for Uy, Initial residual = 0.348607, Final residual = 0.000549934, No Iterations 5
DILUPBiCGStab:  Solving for Uz, Initial residual = 0.997107, Final residual = 0.00258432, No Iterations 5
linear solve U 22752181
[OGL LOG][Proc: 0]global_index_init: 0.01 [ms]
[OGL LOG][DevicePersistentBase.H:106] reading p_local_cols from registry
[OGL LOG][DevicePersistentBase.H:106] reading p_local_rows from registry
[OGL LOG][DevicePersistentBase.H:106] reading p_local_coeffs from registry
[OGL LOG][Proc: 0]call_update: 0 [ms]
[OGL LOG][DevicePersistentBase.H:106] reading p_ldu_csr_map from registry
[OGL LOG][DevicePersistentBase.H:106] reading p_non_local_cols from registry
[OGL LOG][DevicePersistentBase.H:106] reading p_non_local_rows from registry
[OGL LOG][DevicePersistentBase.H:106] reading p_non_local_coeffs from registry
[OGL LOG][Proc: 0]call_update: 0 [ms]
[OGL LOG][Proc: 0]update_local_matrix_data: 1207.09 [ms]
[OGL LOG][Proc: 0]update_non_local_matrix_data: 1.163 [ms]
[OGL LOG][DevicePersistentBase.H:106] reading device_partition from registry
[OGL LOG][DevicePersistentBase.H:106] reading p_matrix from registry
[OGL LOG][Proc: 0]call_update: 1368.7 [ms]
[OGL LOG][DevicePersistentBase.H:106] reading p_rhs from registry
[OGL LOG][Proc: 0]call_update: 68.266 [ms]
[OGL LOG][DevicePersistentBase.H:106] reading p_solution from registry
[OGL LOG][Proc: 0]init_precond: 0.026 [ms]
[OGL LOG][StoppingCriterion.H:588] Creating stopping criterion with minIter 1944 frequency 10
[OGL LOG][Proc: 0]generate_solver: 0.001 [ms]
[OGL LOG][Proc: 0]solve: 17547.2 [ms]
[OGL LOG][Proc: 0]copy_x_back: 63.78 [ms]
[OGL LOG][lduLduBase.H:297] 
Statistics:
	Time per iteration: 5516 [mu s]
	Time per residual norm calculation: 193.000000 [mu s]
	Time per iteration and DOF: 0.086188 [ns]
	Retrieve results bandwith 2.006000 [GByte/s]
nonecudaGKOCG:  Solving for p, Initial residual = 0.654901, Final residual = 9.88815e-05, No Iterations 3181
linear solve p 20370872
time step continuity errors : sum local = 3.47214e-10, global = -1.08779e-23, cumulative = 2.57959e-23
[OGL LOG][Proc: 0]global_index_init: 0.011 [ms]
[OGL LOG][DevicePersistentBase.H:106] reading p_local_cols from registry
[OGL LOG][DevicePersistentBase.H:106] reading p_local_rows from registry
[OGL LOG][DevicePersistentBase.H:106] reading p_local_coeffs from registry
[OGL LOG][Proc: 0]call_update: 0 [ms]
[OGL LOG][DevicePersistentBase.H:106] reading p_ldu_csr_map from registry
[OGL LOG][DevicePersistentBase.H:106] reading p_non_local_cols from registry
[OGL LOG][DevicePersistentBase.H:106] reading p_non_local_rows from registry
[OGL LOG][DevicePersistentBase.H:106] reading p_non_local_coeffs from registry
[OGL LOG][Proc: 0]call_update: 0 [ms]
[OGL LOG][Proc: 0]update_local_matrix_data: 1205.97 [ms]
[OGL LOG][Proc: 0]update_non_local_matrix_data: 1.264 [ms]
[OGL LOG][DevicePersistentBase.H:106] reading device_partition from registry
[OGL LOG][DevicePersistentBase.H:106] reading p_matrix from registry
[OGL LOG][Proc: 0]call_update: 1371.98 [ms]
[OGL LOG][DevicePersistentBase.H:106] reading p_rhs from registry
[OGL LOG][Proc: 0]call_update: 68.351 [ms]
[OGL LOG][DevicePersistentBase.H:106] reading p_solution from registry
[OGL LOG][Proc: 0]init_precond: 0.028 [ms]
[OGL LOG][StoppingCriterion.H:588] Creating stopping criterion with minIter 1908 frequency 10
[OGL LOG][Proc: 0]generate_solver: 0.002 [ms]
[OGL LOG][Proc: 0]solve: 17546.1 [ms]
[OGL LOG][Proc: 0]copy_x_back: 63.678 [ms]
[OGL LOG][lduLduBase.H:297] 
Statistics:
	Time per iteration: 5515 [mu s]
	Time per residual norm calculation: 201.000000 [mu s]
	Time per iteration and DOF: 0.086172 [ns]
	Retrieve results bandwith 2.010000 [GByte/s]
nonecudaGKOCG:  Solving for p, Initial residual = 0.580434, Final residual = 8.79441e-05, No Iterations 3181
linear solve p 20372128
time step continuity errors : sum local = 3.14131e-10, global = -8.06e-24, cumulative = 1.77359e-23
ExecutionTime = 205.14 s  ClockTime = 210 s

Time = 7.5e-05

Courant Number mean: 0.00178106 max: 0.0870165
DILUPBiCGStab:  Solving for Ux, Initial residual = 0.0661404, Final residual = 0.000197638, No Iterations 5
DILUPBiCGStab:  Solving for Uy, Initial residual = 0.138167, Final residual = 0.00013921, No Iterations 5
DILUPBiCGStab:  Solving for Uz, Initial residual = 0.430372, Final residual = 0.00127383, No Iterations 5
linear solve U 22764808
[OGL LOG][Proc: 0]global_index_init: 0.01 [ms]
[OGL LOG][DevicePersistentBase.H:106] reading p_local_cols from registry
[OGL LOG][DevicePersistentBase.H:106] reading p_local_rows from registry
[OGL LOG][DevicePersistentBase.H:106] reading p_local_coeffs from registry
[OGL LOG][Proc: 0]call_update: 0 [ms]
[OGL LOG][DevicePersistentBase.H:106] reading p_ldu_csr_map from registry
[OGL LOG][DevicePersistentBase.H:106] reading p_non_local_cols from registry
[OGL LOG][DevicePersistentBase.H:106] reading p_non_local_rows from registry
[OGL LOG][DevicePersistentBase.H:106] reading p_non_local_coeffs from registry
[OGL LOG][Proc: 0]call_update: 0 [ms]
[OGL LOG][Proc: 0]update_local_matrix_data: 1206.35 [ms]
[OGL LOG][Proc: 0]update_non_local_matrix_data: 1.141 [ms]
[OGL LOG][DevicePersistentBase.H:106] reading device_partition from registry
[OGL LOG][DevicePersistentBase.H:106] reading p_matrix from registry
[OGL LOG][Proc: 0]call_update: 1366.61 [ms]
[OGL LOG][DevicePersistentBase.H:106] reading p_rhs from registry
[OGL LOG][Proc: 0]call_update: 68.192 [ms]
[OGL LOG][DevicePersistentBase.H:106] reading p_solution from registry
[OGL LOG][Proc: 0]init_precond: 0.028 [ms]
[OGL LOG][StoppingCriterion.H:588] Creating stopping criterion with minIter 1908 frequency 10
[OGL LOG][Proc: 0]generate_solver: 0.001 [ms]
[OGL LOG][Proc: 0]solve: 17322.4 [ms]
[OGL LOG][Proc: 0]copy_x_back: 64.036 [ms]
[OGL LOG][lduLduBase.H:297] 
Statistics:
	Time per iteration: 5514 [mu s]
	Time per residual norm calculation: 205.000000 [mu s]
	Time per iteration and DOF: 0.086156 [ns]
	Retrieve results bandwith 1.998000 [GByte/s]
nonecudaGKOCG:  Solving for p, Initial residual = 0.556817, Final residual = 9.11283e-05, No Iterations 3141
linear solve p 20143101
time step continuity errors : sum local = 2.30527e-10, global = 4.50375e-23, cumulative = 6.27733e-23
[OGL LOG][Proc: 0]global_index_init: 0.011 [ms]
[OGL LOG][DevicePersistentBase.H:106] reading p_local_cols from registry
[OGL LOG][DevicePersistentBase.H:106] reading p_local_rows from registry
[OGL LOG][DevicePersistentBase.H:106] reading p_local_coeffs from registry
[OGL LOG][Proc: 0]call_update: 0 [ms]
[OGL LOG][DevicePersistentBase.H:106] reading p_ldu_csr_map from registry
[OGL LOG][DevicePersistentBase.H:106] reading p_non_local_cols from registry
[OGL LOG][DevicePersistentBase.H:106] reading p_non_local_rows from registry
[OGL LOG][DevicePersistentBase.H:106] reading p_non_local_coeffs from registry
[OGL LOG][Proc: 0]call_update: 0 [ms]
[OGL LOG][Proc: 0]update_local_matrix_data: 1207.4 [ms]
[OGL LOG][Proc: 0]update_non_local_matrix_data: 1.265 [ms]
[OGL LOG][DevicePersistentBase.H:106] reading device_partition from registry
[OGL LOG][DevicePersistentBase.H:106] reading p_matrix from registry
[OGL LOG][Proc: 0]call_update: 1371.88 [ms]
[OGL LOG][DevicePersistentBase.H:106] reading p_rhs from registry
[OGL LOG][Proc: 0]call_update: 68.184 [ms]
[OGL LOG][DevicePersistentBase.H:106] reading p_solution from registry
[OGL LOG][Proc: 0]init_precond: 0.027 [ms]
[OGL LOG][StoppingCriterion.H:588] Creating stopping criterion with minIter 1884 frequency 10
[OGL LOG][Proc: 0]generate_solver: 0.001 [ms]
[OGL LOG][Proc: 0]solve: 17300.9 [ms]
[OGL LOG][Proc: 0]copy_x_back: 63.465 [ms]
[OGL LOG][lduLduBase.H:297] 
Statistics:
	Time per iteration: 5525 [mu s]
	Time per residual norm calculation: 198.000000 [mu s]
	Time per iteration and DOF: 0.086328 [ns]
	Retrieve results bandwith 2.016000 [GByte/s]
nonecudaGKOCG:  Solving for p, Initial residual = 0.499724, Final residual = 9.27318e-05, No Iterations 3131
linear solve p 20128162
time step continuity errors : sum local = 2.29731e-10, global = 1.47776e-23, cumulative = 7.7551e-23
ExecutionTime = 282.57 s  ClockTime = 290 s

Time = 0.0001

Courant Number mean: 0.00220834 max: 0.0903159
DILUPBiCGStab:  Solving for Ux, Initial residual = 0.0436882, Final residual = 8.494e-05, No Iterations 5
DILUPBiCGStab:  Solving for Uy, Initial residual = 0.0871973, Final residual = 5.74907e-05, No Iterations 5
DILUPBiCGStab:  Solving for Uz, Initial residual = 0.13237, Final residual = 0.000247876, No Iterations 5
linear solve U 22778048
[OGL LOG][Proc: 0]global_index_init: 0.012 [ms]
[OGL LOG][DevicePersistentBase.H:106] reading p_local_cols from registry
[OGL LOG][DevicePersistentBase.H:106] reading p_local_rows from registry
[OGL LOG][DevicePersistentBase.H:106] reading p_local_coeffs from registry
[OGL LOG][Proc: 0]call_update: 0 [ms]
[OGL LOG][DevicePersistentBase.H:106] reading p_ldu_csr_map from registry
[OGL LOG][DevicePersistentBase.H:106] reading p_non_local_cols from registry
[OGL LOG][DevicePersistentBase.H:106] reading p_non_local_rows from registry
[OGL LOG][DevicePersistentBase.H:106] reading p_non_local_coeffs from registry
[OGL LOG][Proc: 0]call_update: 0 [ms]
[OGL LOG][Proc: 0]update_local_matrix_data: 1206.62 [ms]
[OGL LOG][Proc: 0]update_non_local_matrix_data: 1.976 [ms]
[OGL LOG][DevicePersistentBase.H:106] reading device_partition from registry
[OGL LOG][DevicePersistentBase.H:106] reading p_matrix from registry
[OGL LOG][Proc: 0]call_update: 1368.03 [ms]
[OGL LOG][DevicePersistentBase.H:106] reading p_rhs from registry
[OGL LOG][Proc: 0]call_update: 85.918 [ms]
[OGL LOG][DevicePersistentBase.H:106] reading p_solution from registry
[OGL LOG][Proc: 0]init_precond: 0.033 [ms]
[OGL LOG][StoppingCriterion.H:588] Creating stopping criterion with minIter 1878 frequency 10
[OGL LOG][Proc: 0]generate_solver: 0.001 [ms]
[OGL LOG][Proc: 0]solve: 17126.1 [ms]
[OGL LOG][Proc: 0]copy_x_back: 64.021 [ms]
[OGL LOG][lduLduBase.H:297] 
Statistics:
	Time per iteration: 5522 [mu s]
	Time per residual norm calculation: 203.000000 [mu s]
	Time per iteration and DOF: 0.086281 [ns]
	Retrieve results bandwith 1.999000 [GByte/s]
nonecudaGKOCG:  Solving for p, Initial residual = 0.32007, Final residual = 9.01916e-05, No Iterations 3101
linear solve p 19986328
time step continuity errors : sum local = 1.94091e-10, global = -2.20638e-23, cumulative = 5.54871e-23
[OGL LOG][Proc: 0]global_index_init: 0.011 [ms]
[OGL LOG][DevicePersistentBase.H:106] reading p_local_cols from registry
[OGL LOG][DevicePersistentBase.H:106] reading p_local_rows from registry
[OGL LOG][DevicePersistentBase.H:106] reading p_local_coeffs from registry
[OGL LOG][Proc: 0]call_update: 0 [ms]
[OGL LOG][DevicePersistentBase.H:106] reading p_ldu_csr_map from registry
[OGL LOG][DevicePersistentBase.H:106] reading p_non_local_cols from registry
[OGL LOG][DevicePersistentBase.H:106] reading p_non_local_rows from registry
[OGL LOG][DevicePersistentBase.H:106] reading p_non_local_coeffs from registry
[OGL LOG][Proc: 0]call_update: 0 [ms]
[OGL LOG][Proc: 0]update_local_matrix_data: 1204.15 [ms]
[OGL LOG][Proc: 0]update_non_local_matrix_data: 1.659 [ms]
[OGL LOG][DevicePersistentBase.H:106] reading device_partition from registry
[OGL LOG][DevicePersistentBase.H:106] reading p_matrix from registry
[OGL LOG][Proc: 0]call_update: 1373.16 [ms]
[OGL LOG][DevicePersistentBase.H:106] reading p_rhs from registry
[OGL LOG][Proc: 0]call_update: 76.049 [ms]
[OGL LOG][DevicePersistentBase.H:106] reading p_solution from registry
[OGL LOG][Proc: 0]init_precond: 0.043 [ms]
[OGL LOG][StoppingCriterion.H:588] Creating stopping criterion with minIter 1860 frequency 10
[OGL LOG][Proc: 0]generate_solver: 0.002 [ms]
[OGL LOG][Proc: 0]solve: 16976.8 [ms]
[OGL LOG][Proc: 0]copy_x_back: 63.639 [ms]
[OGL LOG][lduLduBase.H:297] 
Statistics:
	Time per iteration: 5492 [mu s]
	Time per residual norm calculation: 206.000000 [mu s]
	Time per iteration and DOF: 0.085812 [ns]
	Retrieve results bandwith 2.011000 [GByte/s]
nonecudaGKOCG:  Solving for p, Initial residual = 0.265625, Final residual = 9.75763e-05, No Iterations 3091
linear solve p 19811171
time step continuity errors : sum local = 2.11544e-10, global = 3.24878e-23, cumulative = 8.7975e-23
ExecutionTime = 359.92 s  ClockTime = 369 s

Time = 0.000125

Courant Number mean: 0.00255413 max: 0.0919042
DILUPBiCGStab:  Solving for Ux, Initial residual = 0.0332573, Final residual = 5.10925e-05, No Iterations 5
DILUPBiCGStab:  Solving for Uy, Initial residual = 0.0629923, Final residual = 3.67502e-05, No Iterations 5
DILUPBiCGStab:  Solving for Uz, Initial residual = 0.0877209, Final residual = 0.000132377, No Iterations 5
linear solve U 22888898
[OGL LOG][Proc: 0]global_index_init: 0.01 [ms]
[OGL LOG][DevicePersistentBase.H:106] reading p_local_cols from registry
[OGL LOG][DevicePersistentBase.H:106] reading p_local_rows from registry
[OGL LOG][DevicePersistentBase.H:106] reading p_local_coeffs from registry
[OGL LOG][Proc: 0]call_update: 0 [ms]
[OGL LOG][DevicePersistentBase.H:106] reading p_ldu_csr_map from registry
[OGL LOG][DevicePersistentBase.H:106] reading p_non_local_cols from registry
[OGL LOG][DevicePersistentBase.H:106] reading p_non_local_rows from registry
[OGL LOG][DevicePersistentBase.H:106] reading p_non_local_coeffs from registry
[OGL LOG][Proc: 0]call_update: 0 [ms]
[OGL LOG][Proc: 0]update_local_matrix_data: 1209.11 [ms]
[OGL LOG][Proc: 0]update_non_local_matrix_data: 2.131 [ms]
[OGL LOG][DevicePersistentBase.H:106] reading device_partition from registry
[OGL LOG][DevicePersistentBase.H:106] reading p_matrix from registry
[OGL LOG][Proc: 0]call_update: 1370.34 [ms]
[OGL LOG][DevicePersistentBase.H:106] reading p_rhs from registry
[OGL LOG][Proc: 0]call_update: 85.859 [ms]
[OGL LOG][DevicePersistentBase.H:106] reading p_solution from registry
[OGL LOG][Proc: 0]init_precond: 0.032 [ms]
[OGL LOG][StoppingCriterion.H:588] Creating stopping criterion with minIter 1854 frequency 10
[OGL LOG][Proc: 0]generate_solver: 0.001 [ms]
[OGL LOG][Proc: 0]solve: 16635.5 [ms]
[OGL LOG][Proc: 0]copy_x_back: 63.939 [ms]
[OGL LOG][lduLduBase.H:297] 
Statistics:
	Time per iteration: 5543 [mu s]
	Time per residual norm calculation: 200.000000 [mu s]
	Time per iteration and DOF: 0.086609 [ns]
	Retrieve results bandwith 2.001000 [GByte/s]
nonecudaGKOCG:  Solving for p, Initial residual = 0.213886, Final residual = 8.69529e-05, No Iterations 3001
linear solve p 19482119
time step continuity errors : sum local = 1.65856e-10, global = -5.50632e-25, cumulative = 8.74243e-23
[OGL LOG][Proc: 0]global_index_init: 0.01 [ms]
[OGL LOG][DevicePersistentBase.H:106] reading p_local_cols from registry
[OGL LOG][DevicePersistentBase.H:106] reading p_local_rows from registry
[OGL LOG][DevicePersistentBase.H:106] reading p_local_coeffs from registry
[OGL LOG][Proc: 0]call_update: 0 [ms]
[OGL LOG][DevicePersistentBase.H:106] reading p_ldu_csr_map from registry
[OGL LOG][DevicePersistentBase.H:106] reading p_non_local_cols from registry
[OGL LOG][DevicePersistentBase.H:106] reading p_non_local_rows from registry
[OGL LOG][DevicePersistentBase.H:106] reading p_non_local_coeffs from registry
[OGL LOG][Proc: 0]call_update: 0 [ms]
[OGL LOG][Proc: 0]update_local_matrix_data: 1208.99 [ms]
[OGL LOG][Proc: 0]update_non_local_matrix_data: 1.249 [ms]
[OGL LOG][DevicePersistentBase.H:106] reading device_partition from registry
[OGL LOG][DevicePersistentBase.H:106] reading p_matrix from registry
[OGL LOG][Proc: 0]call_update: 1373.6 [ms]
[OGL LOG][DevicePersistentBase.H:106] reading p_rhs from registry
[OGL LOG][Proc: 0]call_update: 68.706 [ms]
[OGL LOG][DevicePersistentBase.H:106] reading p_solution from registry
[OGL LOG][Proc: 0]init_precond: 0.026 [ms]
[OGL LOG][StoppingCriterion.H:588] Creating stopping criterion with minIter 1800 frequency 10
[OGL LOG][Proc: 0]generate_solver: 0.001 [ms]
[OGL LOG][Proc: 0]solve: 16660.7 [ms]
[OGL LOG][Proc: 0]copy_x_back: 63.891 [ms]
[OGL LOG][lduLduBase.H:297] 
Statistics:
	Time per iteration: 5570 [mu s]
	Time per residual norm calculation: 194.000000 [mu s]
	Time per iteration and DOF: 0.087031 [ns]
	Retrieve results bandwith 2.003000 [GByte/s]
nonecudaGKOCG:  Solving for p, Initial residual = 0.180127, Final residual = 9.76936e-05, No Iterations 2991
linear solve p 19506446
time step continuity errors : sum local = 1.856e-10, global = 1.26793e-23, cumulative = 1.00104e-22
ExecutionTime = 436.25 s  ClockTime = 447 s

Time = 0.00015

Courant Number mean: 0.00284935 max: 0.0928888
DILUPBiCGStab:  Solving for Ux, Initial residual = 0.0270451, Final residual = 3.35963e-05, No Iterations 5
DILUPBiCGStab:  Solving for Uy, Initial residual = 0.049493, Final residual = 1.56879e-05, No Iterations 5
DILUPBiCGStab:  Solving for Uz, Initial residual = 0.0765173, Final residual = 9.86296e-05, No Iterations 5
linear solve U 22788044
[OGL LOG][Proc: 0]global_index_init: 0.011 [ms]
[OGL LOG][DevicePersistentBase.H:106] reading p_local_cols from registry
[OGL LOG][DevicePersistentBase.H:106] reading p_local_rows from registry
[OGL LOG][DevicePersistentBase.H:106] reading p_local_coeffs from registry
[OGL LOG][Proc: 0]call_update: 0 [ms]
[OGL LOG][DevicePersistentBase.H:106] reading p_ldu_csr_map from registry
[OGL LOG][DevicePersistentBase.H:106] reading p_non_local_cols from registry
[OGL LOG][DevicePersistentBase.H:106] reading p_non_local_rows from registry
[OGL LOG][DevicePersistentBase.H:106] reading p_non_local_coeffs from registry
[OGL LOG][Proc: 0]call_update: 0 [ms]
[OGL LOG][Proc: 0]update_local_matrix_data: 1209.22 [ms]
[OGL LOG][Proc: 0]update_non_local_matrix_data: 1.966 [ms]
[OGL LOG][DevicePersistentBase.H:106] reading device_partition from registry
[OGL LOG][DevicePersistentBase.H:106] reading p_matrix from registry
[OGL LOG][Proc: 0]call_update: 1370.16 [ms]
[OGL LOG][DevicePersistentBase.H:106] reading p_rhs from registry
[OGL LOG][Proc: 0]call_update: 85.671 [ms]
[OGL LOG][DevicePersistentBase.H:106] reading p_solution from registry
[OGL LOG][Proc: 0]init_precond: 0.034 [ms]
[OGL LOG][StoppingCriterion.H:588] Creating stopping criterion with minIter 1794 frequency 10
[OGL LOG][Proc: 0]generate_solver: 0.001 [ms]
[OGL LOG][Proc: 0]solve: 10825.1 [ms]
[OGL LOG][Proc: 0]copy_x_back: 64.441 [ms]
[OGL LOG][lduLduBase.H:297] 
Statistics:
	Time per iteration: 5694 [mu s]
	Time per residual norm calculation: 200.000000 [mu s]
	Time per iteration and DOF: 0.088969 [ns]
	Retrieve results bandwith 1.986000 [GByte/s]
nonecudaGKOCG:  Solving for p, Initial residual = 0.127235, Final residual = 9.74285e-05, No Iterations 1901
linear solve p 13672195
time step continuity errors : sum local = 1.86507e-10, global = 2.15558e-23, cumulative = 1.21659e-22
[OGL LOG][Proc: 0]global_index_init: 0.011 [ms]
[OGL LOG][DevicePersistentBase.H:106] reading p_local_cols from registry
[OGL LOG][DevicePersistentBase.H:106] reading p_local_rows from registry
[OGL LOG][DevicePersistentBase.H:106] reading p_local_coeffs from registry
[OGL LOG][Proc: 0]call_update: 0 [ms]
[OGL LOG][DevicePersistentBase.H:106] reading p_ldu_csr_map from registry
[OGL LOG][DevicePersistentBase.H:106] reading p_non_local_cols from registry
[OGL LOG][DevicePersistentBase.H:106] reading p_non_local_rows from registry
[OGL LOG][DevicePersistentBase.H:106] reading p_non_local_coeffs from registry
[OGL LOG][Proc: 0]call_update: 0 [ms]
[OGL LOG][Proc: 0]update_local_matrix_data: 1202.76 [ms]
[OGL LOG][Proc: 0]update_non_local_matrix_data: 2.146 [ms]
[OGL LOG][DevicePersistentBase.H:106] reading device_partition from registry
[OGL LOG][DevicePersistentBase.H:106] reading p_matrix from registry
[OGL LOG][Proc: 0]call_update: 1374.31 [ms]
[OGL LOG][DevicePersistentBase.H:106] reading p_rhs from registry
[OGL LOG][Proc: 0]call_update: 86.348 [ms]
[OGL LOG][DevicePersistentBase.H:106] reading p_solution from registry
[OGL LOG][Proc: 0]init_precond: 0.033 [ms]
[OGL LOG][StoppingCriterion.H:588] Creating stopping criterion with minIter 1140 frequency 10
[OGL LOG][Proc: 0]generate_solver: 0.002 [ms]
[OGL LOG][Proc: 0]solve: 8088.93 [ms]
[OGL LOG][Proc: 0]copy_x_back: 64.118 [ms]
[OGL LOG][lduLduBase.H:297] 
Statistics:
	Time per iteration: 5900 [mu s]
	Time per residual norm calculation: 201.000000 [mu s]
	Time per iteration and DOF: 0.092188 [ns]
	Retrieve results bandwith 1.996000 [GByte/s]
nonecudaGKOCG:  Solving for p, Initial residual = 0.104806, Final residual = 9.98762e-05, No Iterations 1371
linear solve p 10933369
time step continuity errors : sum local = 1.86765e-10, global = 6.85009e-26, cumulative = 1.21728e-22
ExecutionTime = 499.13 s  ClockTime = 511 s

Time = 0.000175

Courant Number mean: 0.00310981 max: 0.0935747
DILUPBiCGStab:  Solving for Ux, Initial residual = 0.0228843, Final residual = 2.37576e-05, No Iterations 5
DILUPBiCGStab:  Solving for Uy, Initial residual = 0.0407567, Final residual = 1.4231e-05, No Iterations 5
DILUPBiCGStab:  Solving for Uz, Initial residual = 0.06646, Final residual = 6.45729e-05, No Iterations 5
linear solve U 22803369
[OGL LOG][Proc: 0]global_index_init: 0.011 [ms]
[OGL LOG][DevicePersistentBase.H:106] reading p_local_cols from registry
[OGL LOG][DevicePersistentBase.H:106] reading p_local_rows from registry
[OGL LOG][DevicePersistentBase.H:106] reading p_local_coeffs from registry
[OGL LOG][Proc: 0]call_update: 0 [ms]
[OGL LOG][DevicePersistentBase.H:106] reading p_ldu_csr_map from registry
[OGL LOG][DevicePersistentBase.H:106] reading p_non_local_cols from registry
[OGL LOG][DevicePersistentBase.H:106] reading p_non_local_rows from registry
[OGL LOG][DevicePersistentBase.H:106] reading p_non_local_coeffs from registry
[OGL LOG][Proc: 0]call_update: 0 [ms]
[OGL LOG][Proc: 0]update_local_matrix_data: 1208.28 [ms]
[OGL LOG][Proc: 0]update_non_local_matrix_data: 1.316 [ms]
[OGL LOG][DevicePersistentBase.H:106] reading device_partition from registry
[OGL LOG][DevicePersistentBase.H:106] reading p_matrix from registry
[OGL LOG][Proc: 0]call_update: 1371.77 [ms]
[OGL LOG][DevicePersistentBase.H:106] reading p_rhs from registry
[OGL LOG][Proc: 0]call_update: 67.659 [ms]
[OGL LOG][DevicePersistentBase.H:106] reading p_solution from registry
[OGL LOG][Proc: 0]init_precond: 0.045 [ms]
[OGL LOG][StoppingCriterion.H:588] Creating stopping criterion with minIter 822 frequency 10
[OGL LOG][Proc: 0]generate_solver: 0.002 [ms]
[OGL LOG][Proc: 0]solve: 7986.89 [ms]
[OGL LOG][Proc: 0]copy_x_back: 63.487 [ms]
[OGL LOG][lduLduBase.H:297] 
Statistics:
	Time per iteration: 6046 [mu s]
	Time per residual norm calculation: 198.000000 [mu s]
	Time per iteration and DOF: 0.094469 [ns]
	Retrieve results bandwith 2.016000 [GByte/s]
nonecudaGKOCG:  Solving for p, Initial residual = 0.0871778, Final residual = 9.60657e-05, No Iterations 1321
linear solve p 10813444
time step continuity errors : sum local = 1.72421e-10, global = -4.3912e-23, cumulative = 7.7816e-23
[OGL LOG][Proc: 0]global_index_init: 0.01 [ms]
[OGL LOG][DevicePersistentBase.H:106] reading p_local_cols from registry
[OGL LOG][DevicePersistentBase.H:106] reading p_local_rows from registry
[OGL LOG][DevicePersistentBase.H:106] reading p_local_coeffs from registry
[OGL LOG][Proc: 0]call_update: 0 [ms]
[OGL LOG][DevicePersistentBase.H:106] reading p_ldu_csr_map from registry
[OGL LOG][DevicePersistentBase.H:106] reading p_non_local_cols from registry
[OGL LOG][DevicePersistentBase.H:106] reading p_non_local_rows from registry
[OGL LOG][DevicePersistentBase.H:106] reading p_non_local_coeffs from registry
[OGL LOG][Proc: 0]call_update: 0 [ms]
[OGL LOG][Proc: 0]update_local_matrix_data: 1210.41 [ms]
[OGL LOG][Proc: 0]update_non_local_matrix_data: 1.951 [ms]
[OGL LOG][DevicePersistentBase.H:106] reading device_partition from registry
[OGL LOG][DevicePersistentBase.H:106] reading p_matrix from registry
[OGL LOG][Proc: 0]call_update: 1374.21 [ms]
[OGL LOG][DevicePersistentBase.H:106] reading p_rhs from registry
[OGL LOG][Proc: 0]call_update: 86.641 [ms]
[OGL LOG][DevicePersistentBase.H:106] reading p_solution from registry
[OGL LOG][Proc: 0]init_precond: 0.035 [ms]
[OGL LOG][StoppingCriterion.H:588] Creating stopping criterion with minIter 792 frequency 10
[OGL LOG][Proc: 0]generate_solver: 0.001 [ms]
[OGL LOG][Proc: 0]solve: 7930.72 [ms]
[OGL LOG][Proc: 0]copy_x_back: 63.837 [ms]
[OGL LOG][lduLduBase.H:297] 
Statistics:
	Time per iteration: 6003 [mu s]
	Time per residual norm calculation: 199.000000 [mu s]
	Time per iteration and DOF: 0.093797 [ns]
	Retrieve results bandwith 2.005000 [GByte/s]
nonecudaGKOCG:  Solving for p, Initial residual = 0.0725996, Final residual = 9.32027e-05, No Iterations 1321
linear solve p 10799704
time step continuity errors : sum local = 1.67332e-10, global = 3.45448e-23, cumulative = 1.12361e-22
ExecutionTime = 559.2 s  ClockTime = 572 s

Time = 0.0002

Courant Number mean: 0.00334434 max: 0.094089
DILUPBiCGStab:  Solving for Ux, Initial residual = 0.0198901, Final residual = 1.84267e-05, No Iterations 5
DILUPBiCGStab:  Solving for Uy, Initial residual = 0.0346124, Final residual = 6.60075e-06, No Iterations 5
DILUPBiCGStab:  Solving for Uz, Initial residual = 0.0585864, Final residual = 4.4996e-05, No Iterations 5
linear solve U 22809805
[OGL LOG][Proc: 0]global_index_init: 0.014 [ms]
[OGL LOG][DevicePersistentBase.H:106] reading p_local_cols from registry
[OGL LOG][DevicePersistentBase.H:106] reading p_local_rows from registry
[OGL LOG][DevicePersistentBase.H:106] reading p_local_coeffs from registry
[OGL LOG][Proc: 0]call_update: 0 [ms]
[OGL LOG][DevicePersistentBase.H:106] reading p_ldu_csr_map from registry
[OGL LOG][DevicePersistentBase.H:106] reading p_non_local_cols from registry
[OGL LOG][DevicePersistentBase.H:106] reading p_non_local_rows from registry
[OGL LOG][DevicePersistentBase.H:106] reading p_non_local_coeffs from registry
[OGL LOG][Proc: 0]call_update: 0 [ms]
[OGL LOG][Proc: 0]update_local_matrix_data: 1206.2 [ms]
[OGL LOG][Proc: 0]update_non_local_matrix_data: 1.978 [ms]
[OGL LOG][DevicePersistentBase.H:106] reading device_partition from registry
[OGL LOG][DevicePersistentBase.H:106] reading p_matrix from registry
[OGL LOG][Proc: 0]call_update: 1368.78 [ms]
[OGL LOG][DevicePersistentBase.H:106] reading p_rhs from registry
[OGL LOG][Proc: 0]call_update: 86.028 [ms]
[OGL LOG][DevicePersistentBase.H:106] reading p_solution from registry
[OGL LOG][Proc: 0]init_precond: 0.033 [ms]
[OGL LOG][StoppingCriterion.H:588] Creating stopping criterion with minIter 792 frequency 10
[OGL LOG][Proc: 0]generate_solver: 0.001 [ms]
[OGL LOG][Proc: 0]solve: 7898.86 [ms]
[OGL LOG][Proc: 0]copy_x_back: 64.371 [ms]
[OGL LOG][lduLduBase.H:297] 
Statistics:
	Time per iteration: 6025 [mu s]
	Time per residual norm calculation: 211.000000 [mu s]
	Time per iteration and DOF: 0.094141 [ns]
	Retrieve results bandwith 1.988000 [GByte/s]
nonecudaGKOCG:  Solving for p, Initial residual = 0.0555769, Final residual = 9.85162e-05, No Iterations 1311
linear solve p 10741218
time step continuity errors : sum local = 1.81092e-10, global = -3.08367e-23, cumulative = 8.15241e-23
[OGL LOG][Proc: 0]global_index_init: 0.011 [ms]
[OGL LOG][DevicePersistentBase.H:106] reading p_local_cols from registry
[OGL LOG][DevicePersistentBase.H:106] reading p_local_rows from registry
[OGL LOG][DevicePersistentBase.H:106] reading p_local_coeffs from registry
[OGL LOG][Proc: 0]call_update: 0 [ms]
[OGL LOG][DevicePersistentBase.H:106] reading p_ldu_csr_map from registry
[OGL LOG][DevicePersistentBase.H:106] reading p_non_local_cols from registry
[OGL LOG][DevicePersistentBase.H:106] reading p_non_local_rows from registry
[OGL LOG][DevicePersistentBase.H:106] reading p_non_local_coeffs from registry
[OGL LOG][Proc: 0]call_update: 0 [ms]
[OGL LOG][Proc: 0]update_local_matrix_data: 1209.28 [ms]
[OGL LOG][Proc: 0]update_non_local_matrix_data: 1.29 [ms]
[OGL LOG][DevicePersistentBase.H:106] reading device_partition from registry
[OGL LOG][DevicePersistentBase.H:106] reading p_matrix from registry
[OGL LOG][Proc: 0]call_update: 1373.16 [ms]
[OGL LOG][DevicePersistentBase.H:106] reading p_rhs from registry
[OGL LOG][Proc: 0]call_update: 68.159 [ms]
[OGL LOG][DevicePersistentBase.H:106] reading p_solution from registry
[OGL LOG][Proc: 0]init_precond: 0.035 [ms]
[OGL LOG][StoppingCriterion.H:588] Creating stopping criterion with minIter 786 frequency 10
[OGL LOG][Proc: 0]generate_solver: 0.002 [ms]
[OGL LOG][Proc: 0]solve: 7860.4 [ms]
[OGL LOG][Proc: 0]copy_x_back: 64.005 [ms]
[OGL LOG][lduLduBase.H:297] 
Statistics:
	Time per iteration: 6041 [mu s]
	Time per residual norm calculation: 197.000000 [mu s]
	Time per iteration and DOF: 0.094391 [ns]
	Retrieve results bandwith 1.999000 [GByte/s]
nonecudaGKOCG:  Solving for p, Initial residual = 0.0473371, Final residual = 9.32667e-05, No Iterations 1301
linear solve p 10692181
time step continuity errors : sum local = 1.67614e-10, global = 1.09928e-22, cumulative = 1.91453e-22
ExecutionTime = 619.08 s  ClockTime = 633 s

Time = 0.000225

Courant Number mean: 0.00355866 max: 0.0944924
DILUPBiCGStab:  Solving for Ux, Initial residual = 0.0176087, Final residual = 1.41991e-05, No Iterations 5
DILUPBiCGStab:  Solving for Uy, Initial residual = 0.0300911, Final residual = 6.63379e-06, No Iterations 5
DILUPBiCGStab:  Solving for Uz, Initial residual = 0.0520056, Final residual = 3.34502e-05, No Iterations 5
linear solve U 22774692
[OGL LOG][Proc: 0]global_index_init: 0.014 [ms]
[OGL LOG][DevicePersistentBase.H:106] reading p_local_cols from registry
[OGL LOG][DevicePersistentBase.H:106] reading p_local_rows from registry
[OGL LOG][DevicePersistentBase.H:106] reading p_local_coeffs from registry
[OGL LOG][Proc: 0]call_update: 0 [ms]
[OGL LOG][DevicePersistentBase.H:106] reading p_ldu_csr_map from registry
[OGL LOG][DevicePersistentBase.H:106] reading p_non_local_cols from registry
[OGL LOG][DevicePersistentBase.H:106] reading p_non_local_rows from registry
[OGL LOG][DevicePersistentBase.H:106] reading p_non_local_coeffs from registry
[OGL LOG][Proc: 0]call_update: 0 [ms]
[OGL LOG][Proc: 0]update_local_matrix_data: 1207.98 [ms]
[OGL LOG][Proc: 0]update_non_local_matrix_data: 1.998 [ms]
[OGL LOG][DevicePersistentBase.H:106] reading device_partition from registry
[OGL LOG][DevicePersistentBase.H:106] reading p_matrix from registry
[OGL LOG][Proc: 0]call_update: 1370.56 [ms]
[OGL LOG][DevicePersistentBase.H:106] reading p_rhs from registry
[OGL LOG][Proc: 0]call_update: 85.918 [ms]
[OGL LOG][DevicePersistentBase.H:106] reading p_solution from registry
[OGL LOG][Proc: 0]init_precond: 0.032 [ms]
[OGL LOG][StoppingCriterion.H:588] Creating stopping criterion with minIter 780 frequency 10
[OGL LOG][Proc: 0]generate_solver: 0.001 [ms]
[OGL LOG][Proc: 0]solve: 7789.11 [ms]
[OGL LOG][Proc: 0]copy_x_back: 63.644 [ms]
[OGL LOG][lduLduBase.H:297] 
Statistics:
	Time per iteration: 6033 [mu s]
	Time per residual norm calculation: 207.000000 [mu s]
	Time per iteration and DOF: 0.094266 [ns]
	Retrieve results bandwith 2.011000 [GByte/s]
nonecudaGKOCG:  Solving for p, Initial residual = 0.0410797, Final residual = 9.44028e-05, No Iterations 1291
linear solve p 10651415
time step continuity errors : sum local = 1.67472e-10, global = -7.86077e-23, cumulative = 1.12845e-22
[OGL LOG][Proc: 0]global_index_init: 0.011 [ms]
[OGL LOG][DevicePersistentBase.H:106] reading p_local_cols from registry
[OGL LOG][DevicePersistentBase.H:106] reading p_local_rows from registry
[OGL LOG][DevicePersistentBase.H:106] reading p_local_coeffs from registry
[OGL LOG][Proc: 0]call_update: 0 [ms]
[OGL LOG][DevicePersistentBase.H:106] reading p_ldu_csr_map from registry
[OGL LOG][DevicePersistentBase.H:106] reading p_non_local_cols from registry
[OGL LOG][DevicePersistentBase.H:106] reading p_non_local_rows from registry
[OGL LOG][DevicePersistentBase.H:106] reading p_non_local_coeffs from registry
[OGL LOG][Proc: 0]call_update: 0 [ms]
[OGL LOG][Proc: 0]update_local_matrix_data: 1207.56 [ms]
[OGL LOG][Proc: 0]update_non_local_matrix_data: 1.139 [ms]
[OGL LOG][DevicePersistentBase.H:106] reading device_partition from registry
[OGL LOG][DevicePersistentBase.H:106] reading p_matrix from registry
[OGL LOG][Proc: 0]call_update: 1372.81 [ms]
[OGL LOG][DevicePersistentBase.H:106] reading p_rhs from registry
[OGL LOG][Proc: 0]call_update: 67.913 [ms]
[OGL LOG][DevicePersistentBase.H:106] reading p_solution from registry
[OGL LOG][Proc: 0]init_precond: 0.042 [ms]
[OGL LOG][StoppingCriterion.H:588] Creating stopping criterion with minIter 774 frequency 10
[OGL LOG][Proc: 0]generate_solver: 0.002 [ms]
[OGL LOG][Proc: 0]solve: 7749.17 [ms]
[OGL LOG][Proc: 0]copy_x_back: 63.305 [ms]
[OGL LOG][lduLduBase.H:297] 
Statistics:
	Time per iteration: 6049 [mu s]
	Time per residual norm calculation: 194.000000 [mu s]
	Time per iteration and DOF: 0.094516 [ns]
	Retrieve results bandwith 2.021000 [GByte/s]
nonecudaGKOCG:  Solving for p, Initial residual = 0.0352495, Final residual = 9.73997e-05, No Iterations 1281
linear solve p 10576885
time step continuity errors : sum local = 1.71102e-10, global = 7.52776e-23, cumulative = 1.88122e-22
ExecutionTime = 678.81 s  ClockTime = 693 s

Time = 0.00025

Courant Number mean: 0.00375674 max: 0.0948202
DILUPBiCGStab:  Solving for Ux, Initial residual = 0.0158193, Final residual = 1.15632e-05, No Iterations 5
DILUPBiCGStab:  Solving for Uy, Initial residual = 0.0265862, Final residual = 4.0551e-06, No Iterations 5
DILUPBiCGStab:  Solving for Uz, Initial residual = 0.0474135, Final residual = 2.5616e-05, No Iterations 5
linear solve U 22818662
[OGL LOG][Proc: 0]global_index_init: 0.011 [ms]
[OGL LOG][DevicePersistentBase.H:106] reading p_local_cols from registry
[OGL LOG][DevicePersistentBase.H:106] reading p_local_rows from registry
[OGL LOG][DevicePersistentBase.H:106] reading p_local_coeffs from registry
[OGL LOG][Proc: 0]call_update: 0 [ms]
[OGL LOG][DevicePersistentBase.H:106] reading p_ldu_csr_map from registry
[OGL LOG][DevicePersistentBase.H:106] reading p_non_local_cols from registry
[OGL LOG][DevicePersistentBase.H:106] reading p_non_local_rows from registry
[OGL LOG][DevicePersistentBase.H:106] reading p_non_local_coeffs from registry
[OGL LOG][Proc: 0]call_update: 0 [ms]
[OGL LOG][Proc: 0]update_local_matrix_data: 1207.36 [ms]
[OGL LOG][Proc: 0]update_non_local_matrix_data: 1.958 [ms]
[OGL LOG][DevicePersistentBase.H:106] reading device_partition from registry
[OGL LOG][DevicePersistentBase.H:106] reading p_matrix from registry
[OGL LOG][Proc: 0]call_update: 1369.45 [ms]
[OGL LOG][DevicePersistentBase.H:106] reading p_rhs from registry
[OGL LOG][Proc: 0]call_update: 85.673 [ms]
[OGL LOG][DevicePersistentBase.H:106] reading p_solution from registry
[OGL LOG][Proc: 0]init_precond: 0.031 [ms]
[OGL LOG][StoppingCriterion.H:588] Creating stopping criterion with minIter 768 frequency 10
[OGL LOG][Proc: 0]generate_solver: 0.001 [ms]
[OGL LOG][Proc: 0]solve: 7893.72 [ms]
[OGL LOG][Proc: 0]copy_x_back: 64.112 [ms]
[OGL LOG][lduLduBase.H:297] 
Statistics:
	Time per iteration: 6021 [mu s]
	Time per residual norm calculation: 208.000000 [mu s]
	Time per iteration and DOF: 0.094078 [ns]
	Retrieve results bandwith 1.996000 [GByte/s]
nonecudaGKOCG:  Solving for p, Initial residual = 0.0294395, Final residual = 9.9769e-05, No Iterations 1311
linear solve p 10737946
time step continuity errors : sum local = 1.82272e-10, global = -5.08677e-23, cumulative = 1.37255e-22
[OGL LOG][Proc: 0]global_index_init: 0.013 [ms]
[OGL LOG][DevicePersistentBase.H:106] reading p_local_cols from registry
[OGL LOG][DevicePersistentBase.H:106] reading p_local_rows from registry
[OGL LOG][DevicePersistentBase.H:106] reading p_local_coeffs from registry
[OGL LOG][Proc: 0]call_update: 0 [ms]
[OGL LOG][DevicePersistentBase.H:106] reading p_ldu_csr_map from registry
[OGL LOG][DevicePersistentBase.H:106] reading p_non_local_cols from registry
[OGL LOG][DevicePersistentBase.H:106] reading p_non_local_rows from registry
[OGL LOG][DevicePersistentBase.H:106] reading p_non_local_coeffs from registry
[OGL LOG][Proc: 0]call_update: 0 [ms]
[OGL LOG][Proc: 0]update_local_matrix_data: 1207.23 [ms]
[OGL LOG][Proc: 0]update_non_local_matrix_data: 2.007 [ms]
[OGL LOG][DevicePersistentBase.H:106] reading device_partition from registry
[OGL LOG][DevicePersistentBase.H:106] reading p_matrix from registry
[OGL LOG][Proc: 0]call_update: 1373.79 [ms]
[OGL LOG][DevicePersistentBase.H:106] reading p_rhs from registry
[OGL LOG][Proc: 0]call_update: 86.364 [ms]
[OGL LOG][DevicePersistentBase.H:106] reading p_solution from registry
[OGL LOG][Proc: 0]init_precond: 0.033 [ms]
[OGL LOG][StoppingCriterion.H:588] Creating stopping criterion with minIter 786 frequency 10
[OGL LOG][Proc: 0]generate_solver: 0.002 [ms]
[OGL LOG][Proc: 0]solve: 7738.88 [ms]
[OGL LOG][Proc: 0]copy_x_back: 63.752 [ms]
[OGL LOG][lduLduBase.H:297] 
Statistics:
	Time per iteration: 6041 [mu s]
	Time per residual norm calculation: 200.000000 [mu s]
	Time per iteration and DOF: 0.094391 [ns]
	Retrieve results bandwith 2.007000 [GByte/s]
nonecudaGKOCG:  Solving for p, Initial residual = 0.0259402, Final residual = 9.58328e-05, No Iterations 1281
linear solve p 10586749
time step continuity errors : sum local = 1.70689e-10, global = -2.42639e-23, cumulative = 1.12991e-22
ExecutionTime = 738.58 s  ClockTime = 754 s

Time = 0.000275

Courant Number mean: 0.00394124 max: 0.0950931
DILUPBiCGStab:  Solving for Ux, Initial residual = 0.0143638, Final residual = 9.4183e-06, No Iterations 5
DILUPBiCGStab:  Solving for Uy, Initial residual = 0.0238268, Final residual = 3.84382e-06, No Iterations 5
DILUPBiCGStab:  Solving for Uz, Initial residual = 0.043216, Final residual = 2.1946e-05, No Iterations 5
linear solve U 22839755
[OGL LOG][Proc: 0]global_index_init: 0.01 [ms]
[OGL LOG][DevicePersistentBase.H:106] reading p_local_cols from registry
[OGL LOG][DevicePersistentBase.H:106] reading p_local_rows from registry
[OGL LOG][DevicePersistentBase.H:106] reading p_local_coeffs from registry
[OGL LOG][Proc: 0]call_update: 0 [ms]
[OGL LOG][DevicePersistentBase.H:106] reading p_ldu_csr_map from registry
[OGL LOG][DevicePersistentBase.H:106] reading p_non_local_cols from registry
[OGL LOG][DevicePersistentBase.H:106] reading p_non_local_rows from registry
[OGL LOG][DevicePersistentBase.H:106] reading p_non_local_coeffs from registry
[OGL LOG][Proc: 0]call_update: 0 [ms]
[OGL LOG][Proc: 0]update_local_matrix_data: 1207.94 [ms]
[OGL LOG][Proc: 0]update_non_local_matrix_data: 2.169 [ms]
[OGL LOG][DevicePersistentBase.H:106] reading device_partition from registry
[OGL LOG][DevicePersistentBase.H:106] reading p_matrix from registry
[OGL LOG][Proc: 0]call_update: 1368.81 [ms]
[OGL LOG][DevicePersistentBase.H:106] reading p_rhs from registry
[OGL LOG][Proc: 0]call_update: 86.016 [ms]
[OGL LOG][DevicePersistentBase.H:106] reading p_solution from registry
[OGL LOG][Proc: 0]init_precond: 0.034 [ms]
[OGL LOG][StoppingCriterion.H:588] Creating stopping criterion with minIter 768 frequency 10
[OGL LOG][Proc: 0]generate_solver: 0.002 [ms]
[OGL LOG][Proc: 0]solve: 8212.92 [ms]
[OGL LOG][Proc: 0]copy_x_back: 64.436 [ms]
[OGL LOG][lduLduBase.H:297] 
Statistics:
	Time per iteration: 5990 [mu s]
	Time per residual norm calculation: 200.000000 [mu s]
	Time per iteration and DOF: 0.093594 [ns]
	Retrieve results bandwith 1.986000 [GByte/s]
nonecudaGKOCG:  Solving for p, Initial residual = 0.0235339, Final residual = 8.81545e-05, No Iterations 1371
linear solve p 11056799
time step continuity errors : sum local = 1.5743e-10, global = 1.17944e-23, cumulative = 1.24785e-22
[OGL LOG][Proc: 0]global_index_init: 0.011 [ms]
[OGL LOG][DevicePersistentBase.H:106] reading p_local_cols from registry
[OGL LOG][DevicePersistentBase.H:106] reading p_local_rows from registry
[OGL LOG][DevicePersistentBase.H:106] reading p_local_coeffs from registry
[OGL LOG][Proc: 0]call_update: 0 [ms]
[OGL LOG][DevicePersistentBase.H:106] reading p_ldu_csr_map from registry
[OGL LOG][DevicePersistentBase.H:106] reading p_non_local_cols from registry
[OGL LOG][DevicePersistentBase.H:106] reading p_non_local_rows from registry
[OGL LOG][DevicePersistentBase.H:106] reading p_non_local_coeffs from registry
[OGL LOG][Proc: 0]call_update: 0 [ms]
[OGL LOG][Proc: 0]update_local_matrix_data: 1209.96 [ms]
[OGL LOG][Proc: 0]update_non_local_matrix_data: 1.314 [ms]
[OGL LOG][DevicePersistentBase.H:106] reading device_partition from registry
[OGL LOG][DevicePersistentBase.H:106] reading p_matrix from registry
[OGL LOG][Proc: 0]call_update: 1371.95 [ms]
[OGL LOG][DevicePersistentBase.H:106] reading p_rhs from registry
[OGL LOG][Proc: 0]call_update: 67.844 [ms]
[OGL LOG][DevicePersistentBase.H:106] reading p_solution from registry
[OGL LOG][Proc: 0]init_precond: 0.027 [ms]
[OGL LOG][StoppingCriterion.H:588] Creating stopping criterion with minIter 822 frequency 10
[OGL LOG][Proc: 0]generate_solver: 0.001 [ms]
[OGL LOG][Proc: 0]solve: 8106.67 [ms]
[OGL LOG][Proc: 0]copy_x_back: 63.831 [ms]
[OGL LOG][lduLduBase.H:297] 
Statistics:
	Time per iteration: 6000 [mu s]
	Time per residual norm calculation: 194.000000 [mu s]
	Time per iteration and DOF: 0.093750 [ns]
	Retrieve results bandwith 2.005000 [GByte/s]
nonecudaGKOCG:  Solving for p, Initial residual = 0.0210677, Final residual = 9.75574e-05, No Iterations 1351
linear solve p 10937222
time step continuity errors : sum local = 1.70378e-10, global = 3.55359e-23, cumulative = 1.60321e-22
ExecutionTime = 799.11 s  ClockTime = 815 s

Time = 0.0003

Courant Number mean: 0.00411426 max: 0.095325
DILUPBiCGStab:  Solving for Ux, Initial residual = 0.0131668, Final residual = 7.83788e-06, No Iterations 5
DILUPBiCGStab:  Solving for Uy, Initial residual = 0.0215614, Final residual = 2.91777e-06, No Iterations 5
DILUPBiCGStab:  Solving for Uz, Initial residual = 0.0399908, Final residual = 1.83857e-05, No Iterations 5
linear solve U 22833957
[OGL LOG][Proc: 0]global_index_init: 0.011 [ms]
[OGL LOG][DevicePersistentBase.H:106] reading p_local_cols from registry
[OGL LOG][DevicePersistentBase.H:106] reading p_local_rows from registry
[OGL LOG][DevicePersistentBase.H:106] reading p_local_coeffs from registry
[OGL LOG][Proc: 0]call_update: 0 [ms]
[OGL LOG][DevicePersistentBase.H:106] reading p_ldu_csr_map from registry
[OGL LOG][DevicePersistentBase.H:106] reading p_non_local_cols from registry
[OGL LOG][DevicePersistentBase.H:106] reading p_non_local_rows from registry
[OGL LOG][DevicePersistentBase.H:106] reading p_non_local_coeffs from registry
[OGL LOG][Proc: 0]call_update: 0 [ms]
[OGL LOG][Proc: 0]update_local_matrix_data: 1208.16 [ms]
[OGL LOG][Proc: 0]update_non_local_matrix_data: 2.066 [ms]
[OGL LOG][DevicePersistentBase.H:106] reading device_partition from registry
[OGL LOG][DevicePersistentBase.H:106] reading p_matrix from registry
[OGL LOG][Proc: 0]call_update: 1369.44 [ms]
[OGL LOG][DevicePersistentBase.H:106] reading p_rhs from registry
[OGL LOG][Proc: 0]call_update: 85.786 [ms]
[OGL LOG][DevicePersistentBase.H:106] reading p_solution from registry
[OGL LOG][Proc: 0]init_precond: 0.031 [ms]
[OGL LOG][StoppingCriterion.H:588] Creating stopping criterion with minIter 810 frequency 10
[OGL LOG][Proc: 0]generate_solver: 0.001 [ms]
[OGL LOG][Proc: 0]solve: 8107.86 [ms]
[OGL LOG][Proc: 0]copy_x_back: 63.788 [ms]
[OGL LOG][lduLduBase.H:297] 
Statistics:
	Time per iteration: 6001 [mu s]
	Time per residual norm calculation: 201.000000 [mu s]
	Time per iteration and DOF: 0.093766 [ns]
	Retrieve results bandwith 2.006000 [GByte/s]
nonecudaGKOCG:  Solving for p, Initial residual = 0.0185697, Final residual = 9.89089e-05, No Iterations 1351
linear solve p 10954180
time step continuity errors : sum local = 1.82149e-10, global = -4.40325e-23, cumulative = 1.16289e-22
[OGL LOG][Proc: 0]global_index_init: 0.011 [ms]
[OGL LOG][DevicePersistentBase.H:106] reading p_local_cols from registry
[OGL LOG][DevicePersistentBase.H:106] reading p_local_rows from registry
[OGL LOG][DevicePersistentBase.H:106] reading p_local_coeffs from registry
[OGL LOG][Proc: 0]call_update: 0 [ms]
[OGL LOG][DevicePersistentBase.H:106] reading p_ldu_csr_map from registry
[OGL LOG][DevicePersistentBase.H:106] reading p_non_local_cols from registry
[OGL LOG][DevicePersistentBase.H:106] reading p_non_local_rows from registry
[OGL LOG][DevicePersistentBase.H:106] reading p_non_local_coeffs from registry
[OGL LOG][Proc: 0]call_update: 0 [ms]
[OGL LOG][Proc: 0]update_local_matrix_data: 1205.9 [ms]
[OGL LOG][Proc: 0]update_non_local_matrix_data: 1.205 [ms]
[OGL LOG][DevicePersistentBase.H:106] reading device_partition from registry
[OGL LOG][DevicePersistentBase.H:106] reading p_matrix from registry
[OGL LOG][Proc: 0]call_update: 1372.59 [ms]
[OGL LOG][DevicePersistentBase.H:106] reading p_rhs from registry
[OGL LOG][Proc: 0]call_update: 67.757 [ms]
[OGL LOG][DevicePersistentBase.H:106] reading p_solution from registry
[OGL LOG][Proc: 0]init_precond: 0.038 [ms]
[OGL LOG][StoppingCriterion.H:588] Creating stopping criterion with minIter 810 frequency 10
[OGL LOG][Proc: 0]generate_solver: 0.002 [ms]
[OGL LOG][Proc: 0]solve: 7493.83 [ms]
[OGL LOG][Proc: 0]copy_x_back: 63.553 [ms]
[OGL LOG][lduLduBase.H:297] 
Statistics:
	Time per iteration: 6087 [mu s]
	Time per residual norm calculation: 196.000000 [mu s]
	Time per iteration and DOF: 0.095109 [ns]
	Retrieve results bandwith 2.014000 [GByte/s]
nonecudaGKOCG:  Solving for p, Initial residual = 0.017074, Final residual = 9.70405e-05, No Iterations 1231
linear solve p 10319893
time step continuity errors : sum local = 1.73084e-10, global = -4.82941e-23, cumulative = 6.79946e-23
ExecutionTime = 858.9 s  ClockTime = 876 s

Time = 0.000325

Courant Number mean: 0.00427751 max: 0.0955252
DILUPBiCGStab:  Solving for Ux, Initial residual = 0.0121508, Final residual = 6.56297e-06, No Iterations 5
DILUPBiCGStab:  Solving for Uy, Initial residual = 0.0197034, Final residual = 2.67681e-06, No Iterations 5
DILUPBiCGStab:  Solving for Uz, Initial residual = 0.0368227, Final residual = 1.75793e-05, No Iterations 5
linear solve U 22779603
[OGL LOG][Proc: 0]global_index_init: 0.011 [ms]
[OGL LOG][DevicePersistentBase.H:106] reading p_local_cols from registry
[OGL LOG][DevicePersistentBase.H:106] reading p_local_rows from registry
[OGL LOG][DevicePersistentBase.H:106] reading p_local_coeffs from registry
[OGL LOG][Proc: 0]call_update: 0 [ms]
[OGL LOG][DevicePersistentBase.H:106] reading p_ldu_csr_map from registry
[OGL LOG][DevicePersistentBase.H:106] reading p_non_local_cols from registry
[OGL LOG][DevicePersistentBase.H:106] reading p_non_local_rows from registry
[OGL LOG][DevicePersistentBase.H:106] reading p_non_local_coeffs from registry
[OGL LOG][Proc: 0]call_update: 0 [ms]
[OGL LOG][Proc: 0]update_local_matrix_data: 1209.04 [ms]
[OGL LOG][Proc: 0]update_non_local_matrix_data: 2.054 [ms]
[OGL LOG][DevicePersistentBase.H:106] reading device_partition from registry
[OGL LOG][DevicePersistentBase.H:106] reading p_matrix from registry
[OGL LOG][Proc: 0]call_update: 1370.86 [ms]
[OGL LOG][DevicePersistentBase.H:106] reading p_rhs from registry
[OGL LOG][Proc: 0]call_update: 85.943 [ms]
[OGL LOG][DevicePersistentBase.H:106] reading p_solution from registry
[OGL LOG][Proc: 0]init_precond: 0.032 [ms]
[OGL LOG][StoppingCriterion.H:588] Creating stopping criterion with minIter 738 frequency 10
[OGL LOG][Proc: 0]generate_solver: 0.001 [ms]
[OGL LOG][Proc: 0]solve: 8270.89 [ms]
[OGL LOG][Proc: 0]copy_x_back: 63.442 [ms]
[OGL LOG][lduLduBase.H:297] 
Statistics:
	Time per iteration: 6077 [mu s]
	Time per residual norm calculation: 205.000000 [mu s]
	Time per iteration and DOF: 0.094953 [ns]
	Retrieve results bandwith 2.017000 [GByte/s]
nonecudaGKOCG:  Solving for p, Initial residual = 0.016211, Final residual = 9.01571e-05, No Iterations 1361
linear solve p 11134687
time step continuity errors : sum local = 1.63039e-10, global = 2.39133e-23, cumulative = 9.19079e-23
[OGL LOG][Proc: 0]global_index_init: 0.011 [ms]
[OGL LOG][DevicePersistentBase.H:106] reading p_local_cols from registry
[OGL LOG][DevicePersistentBase.H:106] reading p_local_rows from registry
[OGL LOG][DevicePersistentBase.H:106] reading p_local_coeffs from registry
[OGL LOG][Proc: 0]call_update: 0 [ms]
[OGL LOG][DevicePersistentBase.H:106] reading p_ldu_csr_map from registry
[OGL LOG][DevicePersistentBase.H:106] reading p_non_local_cols from registry
[OGL LOG][DevicePersistentBase.H:106] reading p_non_local_rows from registry
[OGL LOG][DevicePersistentBase.H:106] reading p_non_local_coeffs from registry
[OGL LOG][Proc: 0]call_update: 0 [ms]
[OGL LOG][Proc: 0]update_local_matrix_data: 1207.9 [ms]
[OGL LOG][Proc: 0]update_non_local_matrix_data: 1.775 [ms]
[OGL LOG][DevicePersistentBase.H:106] reading device_partition from registry
[OGL LOG][DevicePersistentBase.H:106] reading p_matrix from registry
[OGL LOG][Proc: 0]call_update: 1376.28 [ms]
[OGL LOG][DevicePersistentBase.H:106] reading p_rhs from registry
[OGL LOG][Proc: 0]call_update: 86.484 [ms]
[OGL LOG][DevicePersistentBase.H:106] reading p_solution from registry
[OGL LOG][Proc: 0]init_precond: 0.033 [ms]
[OGL LOG][StoppingCriterion.H:588] Creating stopping criterion with minIter 816 frequency 10
[OGL LOG][Proc: 0]generate_solver: 0.001 [ms]
[OGL LOG][Proc: 0]solve: 8005.44 [ms]
[OGL LOG][Proc: 0]copy_x_back: 63.666 [ms]
[OGL LOG][lduLduBase.H:297] 
Statistics:
	Time per iteration: 6014 [mu s]
	Time per residual norm calculation: 200.000000 [mu s]
	Time per iteration and DOF: 0.093969 [ns]
	Retrieve results bandwith 2.010000 [GByte/s]
nonecudaGKOCG:  Solving for p, Initial residual = 0.014995, Final residual = 9.74396e-05, No Iterations 1331
linear solve p 10857081
time step continuity errors : sum local = 1.7049e-10, global = -7.45179e-23, cumulative = 1.739e-23
ExecutionTime = 919.18 s  ClockTime = 937 s

Time = 0.00035

Courant Number mean: 0.00443218 max: 0.0957004
DILUPBiCGStab:  Solving for Ux, Initial residual = 0.0112909, Final residual = 5.56612e-06, No Iterations 5
DILUPBiCGStab:  Solving for Uy, Initial residual = 0.0181175, Final residual = 2.26552e-06, No Iterations 5
DILUPBiCGStab:  Solving for Uz, Initial residual = 0.034518, Final residual = 1.64627e-05, No Iterations 5
linear solve U 22842254
[OGL LOG][Proc: 0]global_index_init: 0.011 [ms]
[OGL LOG][DevicePersistentBase.H:106] reading p_local_cols from registry
[OGL LOG][DevicePersistentBase.H:106] reading p_local_rows from registry
[OGL LOG][DevicePersistentBase.H:106] reading p_local_coeffs from registry
[OGL LOG][Proc: 0]call_update: 0 [ms]
[OGL LOG][DevicePersistentBase.H:106] reading p_ldu_csr_map from registry
[OGL LOG][DevicePersistentBase.H:106] reading p_non_local_cols from registry
[OGL LOG][DevicePersistentBase.H:106] reading p_non_local_rows from registry
[OGL LOG][DevicePersistentBase.H:106] reading p_non_local_coeffs from registry
[OGL LOG][Proc: 0]call_update: 0 [ms]
[OGL LOG][Proc: 0]update_local_matrix_data: 1210.81 [ms]
[OGL LOG][Proc: 0]update_non_local_matrix_data: 2.052 [ms]
[OGL LOG][DevicePersistentBase.H:106] reading device_partition from registry
[OGL LOG][DevicePersistentBase.H:106] reading p_matrix from registry
[OGL LOG][Proc: 0]call_update: 1371.9 [ms]
[...]
|  \\    /   O peration     | Version:  2112                                  |
|   \\  /    A nd           | Website:  www.openfoam.com                      |
|    \\/     M anipulation  |                                                 |
\*---------------------------------------------------------------------------*/
Build  : d44c8318f0-20220111 OPENFOAM=2112 version=v2112
Arch   : "LSB;label=32;scalar=64"
Exec   : icoFoam -parallel
Date   : Sep 29 2022
Time   : 13:45:46
Host   : hkn1151.localdomain
PID    : 214305
I/O    : uncollated
Case   : /hkfs/work/workspace/scratch/eq4036-lidDrivenCavity/single_node/mesh/250/matrix_solver/CG_NoPrecond_OpenFOAM_Default/mpiRank_of/76/base
nProcs : 76
Hosts  :
(
    (hkn1151.localdomain 76)
)
Pstream initialized with:
    floatTransfer      : 0
    nProcsSimpleSum    : 0
    commsType          : nonBlocking
    polling iterations : 0
trapFpe: Floating point exception trapping enabled (FOAM_SIGFPE).
fileModificationChecking : Monitoring run-time modified files using timeStampMaster (fileModificationSkew 5, maxFileModificationPolls 20)
allowSystemOperations : Allowing user-supplied system call operations

// * * * * * * * * * * * * * * * * * * * * * * * * * * * * * * * * * * * * * //
Create time

--> FOAM Warning : 
    From void* Foam::dlLibraryTable::openLibrary(const Foam::fileName&, bool)
    in file db/dynamicLibrary/dlLibraryTable/dlLibraryTable.C at line 188
    Could not load "libpetscFoam.so"
libcuda.so.1: cannot open shared object file: No such file or directory
Create mesh for time = 0


PISO: Operating solver in PISO mode

Reading transportProperties

Reading field p

Reading field U

Reading/calculating face flux field phi


Starting time loop

Time = 4e-05

Courant Number mean: 0 max: 0
DILUPBiCGStab:  Solving for Ux, Initial residual = 1, Final residual = 0.000693689, No Iterations 5
DILUPBiCGStab:  Solving for Uy:  solution singularity
DILUPBiCGStab:  Solving for Uz:  solution singularity
linear solve U 422826
nonePCG:  Solving for p, Initial residual = 1, Final residual = 9.95845e-05, No Iterations 2024
linear solve p 25298753
time step continuity errors : sum local = 4.82718e-10, global = -2.39105e-22, cumulative = -2.39105e-22
nonePCG:  Solving for p, Initial residual = 0.669037, Final residual = 9.93755e-05, No Iterations 1990
linear solve p 24233132
time step continuity errors : sum local = 6.78647e-10, global = -9.99881e-22, cumulative = -1.23899e-21
ExecutionTime = 51.55 s  ClockTime = 52 s

Time = 8e-05

Courant Number mean: 0.001426 max: 0.0690523
DILUPBiCGStab:  Solving for Ux, Initial residual = 0.180319, Final residual = 0.000426967, No Iterations 5
DILUPBiCGStab:  Solving for Uy, Initial residual = 0.336283, Final residual = 0.000333154, No Iterations 5
DILUPBiCGStab:  Solving for Uz, Initial residual = 0.994455, Final residual = 0.00133853, No Iterations 5
linear solve U 748561
nonePCG:  Solving for p, Initial residual = 0.56175, Final residual = 9.78777e-05, No Iterations 1960
linear solve p 23678738
time step continuity errors : sum local = 6.67037e-10, global = -1.27741e-21, cumulative = -2.51639e-21
nonePCG:  Solving for p, Initial residual = 0.474375, Final residual = 9.94513e-05, No Iterations 1954
linear solve p 23758287
time step continuity errors : sum local = 6.9671e-10, global = -1.22407e-21, cumulative = -3.74046e-21
ExecutionTime = 99.96 s  ClockTime = 101 s

Time = 0.00012

Courant Number mean: 0.00219179 max: 0.0832387
DILUPBiCGStab:  Solving for Ux, Initial residual = 0.0755365, Final residual = 0.00011889, No Iterations 5
DILUPBiCGStab:  Solving for Uy, Initial residual = 0.13706, Final residual = 9.20681e-05, No Iterations 5
DILUPBiCGStab:  Solving for Uz, Initial residual = 0.0998553, Final residual = 0.000188393, No Iterations 5
linear solve U 770737
nonePCG:  Solving for p, Initial residual = 0.347215, Final residual = 9.99783e-05, No Iterations 1909
linear solve p 23150500
time step continuity errors : sum local = 5.00611e-10, global = -1.3878e-21, cumulative = -5.12826e-21
nonePCG:  Solving for p, Initial residual = 0.292307, Final residual = 9.83225e-05, No Iterations 1903
linear solve p 23343573
time step continuity errors : sum local = 4.82912e-10, global = -1.23642e-21, cumulative = -6.36468e-21
ExecutionTime = 147.46 s  ClockTime = 149 s

Time = 0.00016

Courant Number mean: 0.0027205 max: 0.0875639
DILUPBiCGStab:  Solving for Ux, Initial residual = 0.0486734, Final residual = 4.94996e-05, No Iterations 5
DILUPBiCGStab:  Solving for Uy, Initial residual = 0.0860103, Final residual = 4.96236e-05, No Iterations 5
DILUPBiCGStab:  Solving for Uz, Initial residual = 0.111204, Final residual = 0.00015669, No Iterations 5
linear solve U 751081
nonePCG:  Solving for p, Initial residual = 0.167484, Final residual = 9.92389e-05, No Iterations 1872
linear solve p 22549349
time step continuity errors : sum local = 4.58725e-10, global = -1.19416e-21, cumulative = -7.55883e-21
nonePCG:  Solving for p, Initial residual = 0.135719, Final residual = 9.95914e-05, No Iterations 1863
linear solve p 22540386
time step continuity errors : sum local = 4.64653e-10, global = -1.42482e-21, cumulative = -8.98366e-21
ExecutionTime = 193.54 s  ClockTime = 195 s

Time = 0.0002

Courant Number mean: 0.00314353 max: 0.0896297
DILUPBiCGStab:  Solving for Ux, Initial residual = 0.0365199, Final residual = 2.30406e-05, No Iterations 5
DILUPBiCGStab:  Solving for Uy, Initial residual = 0.0622509, Final residual = 3.21433e-05, No Iterations 5
DILUPBiCGStab:  Solving for Uz, Initial residual = 0.0907348, Final residual = 8.95213e-05, No Iterations 5
linear solve U 744149
nonePCG:  Solving for p, Initial residual = 0.0880765, Final residual = 9.7584e-05, No Iterations 894
linear solve p 10901314
time step continuity errors : sum local = 4.59341e-10, global = -1.24716e-21, cumulative = -1.02308e-20
nonePCG:  Solving for p, Initial residual = 0.0725858, Final residual = 9.77704e-05, No Iterations 859
linear solve p 10403611
time step continuity errors : sum local = 4.38644e-10, global = -1.16912e-21, cumulative = -1.13999e-20
ExecutionTime = 216.05 s  ClockTime = 218 s

Time = 0.00024

Courant Number mean: 0.00350249 max: 0.0908924
DILUPBiCGStab:  Solving for Ux, Initial residual = 0.0294181, Final residual = 1.40277e-05, No Iterations 5
DILUPBiCGStab:  Solving for Uy, Initial residual = 0.0488617, Final residual = 1.98328e-05, No Iterations 5
DILUPBiCGStab:  Solving for Uz, Initial residual = 0.0775125, Final residual = 6.64756e-05, No Iterations 5
linear solve U 743907
nonePCG:  Solving for p, Initial residual = 0.0548292, Final residual = 9.9233e-05, No Iterations 844
linear solve p 10230008
time step continuity errors : sum local = 4.36077e-10, global = -1.17084e-21, cumulative = -1.25708e-20
nonePCG:  Solving for p, Initial residual = 0.0458911, Final residual = 9.96712e-05, No Iterations 820
linear solve p 9945172
time step continuity errors : sum local = 4.37275e-10, global = -9.80048e-22, cumulative = -1.35508e-20
ExecutionTime = 237.43 s  ClockTime = 240 s

Time = 0.00028

Courant Number mean: 0.00381743 max: 0.0917683
DILUPBiCGStab:  Solving for Ux, Initial residual = 0.0247211, Final residual = 9.65424e-06, No Iterations 5
DILUPBiCGStab:  Solving for Uy, Initial residual = 0.0401896, Final residual = 1.56558e-05, No Iterations 5
DILUPBiCGStab:  Solving for Uz, Initial residual = 0.0665394, Final residual = 4.81711e-05, No Iterations 5
linear solve U 765120
nonePCG:  Solving for p, Initial residual = 0.0364678, Final residual = 9.87058e-05, No Iterations 803
linear solve p 9779748
time step continuity errors : sum local = 4.4821e-10, global = -1.07527e-21, cumulative = -1.46261e-20
nonePCG:  Solving for p, Initial residual = 0.0314727, Final residual = 9.98359e-05, No Iterations 794
linear solve p 9634481
time step continuity errors : sum local = 4.40894e-10, global = -7.96727e-22, cumulative = -1.54228e-20
ExecutionTime = 258.12 s  ClockTime = 261 s

Time = 0.00032

Courant Number mean: 0.00409984 max: 0.0924225
DILUPBiCGStab:  Solving for Ux, Initial residual = 0.0213497, Final residual = 7.48374e-06, No Iterations 5
DILUPBiCGStab:  Solving for Uy, Initial residual = 0.0341205, Final residual = 1.21475e-05, No Iterations 5
DILUPBiCGStab:  Solving for Uz, Initial residual = 0.0580874, Final residual = 3.78136e-05, No Iterations 5
linear solve U 742049
nonePCG:  Solving for p, Initial residual = 0.025892, Final residual = 9.90268e-05, No Iterations 786
linear solve p 9616357
time step continuity errors : sum local = 4.34527e-10, global = -9.48593e-22, cumulative = -1.63714e-20
nonePCG:  Solving for p, Initial residual = 0.0228622, Final residual = 9.93338e-05, No Iterations 780
linear solve p 9471011
time step continuity errors : sum local = 4.35352e-10, global = -9.45292e-22, cumulative = -1.73167e-20
ExecutionTime = 278.43 s  ClockTime = 281 s

Time = 0.00036

Courant Number mean: 0.0043573 max: 0.0929352
DILUPBiCGStab:  Solving for Ux, Initial residual = 0.0188092, Final residual = 6.20998e-06, No Iterations 5
DILUPBiCGStab:  Solving for Uy, Initial residual = 0.0296248, Final residual = 1.02417e-05, No Iterations 5
DILUPBiCGStab:  Solving for Uz, Initial residual = 0.0518857, Final residual = 3.00835e-05, No Iterations 5
linear solve U 743852
nonePCG:  Solving for p, Initial residual = 0.0210505, Final residual = 9.99061e-05, No Iterations 766
linear solve p 9239114
time step continuity errors : sum local = 4.49551e-10, global = -6.3122e-22, cumulative = -1.79479e-20
nonePCG:  Solving for p, Initial residual = 0.0188619, Final residual = 9.92272e-05, No Iterations 758
linear solve p 9234928
time step continuity errors : sum local = 4.38896e-10, global = -8.20207e-22, cumulative = -1.87681e-20
ExecutionTime = 298.12 s  ClockTime = 301 s

Time = 0.0004

Courant Number mean: 0.00459408 max: 0.0933509
DILUPBiCGStab:  Solving for Ux, Initial residual = 0.0168169, Final residual = 5.39389e-06, No Iterations 5
DILUPBiCGStab:  Solving for Uy, Initial residual = 0.0261698, Final residual = 8.70016e-06, No Iterations 5
DILUPBiCGStab:  Solving for Uz, Initial residual = 0.0465972, Final residual = 2.4792e-05, No Iterations 5
linear solve U 744232
nonePCG:  Solving for p, Initial residual = 0.0171287, Final residual = 9.93423e-05, No Iterations 757
linear solve p 9158431
time step continuity errors : sum local = 4.38616e-10, global = -1.01182e-21, cumulative = -1.978e-20
nonePCG:  Solving for p, Initial residual = 0.0156038, Final residual = 9.90434e-05, No Iterations 752
linear solve p 9134614
time step continuity errors : sum local = 4.36787e-10, global = -9.51944e-22, cumulative = -2.07319e-20
ExecutionTime = 317.64 s  ClockTime = 321 s

Time = 0.00044

Courant Number mean: 0.00481427 max: 0.0936969
DILUPBiCGStab:  Solving for Ux, Initial residual = 0.0152127, Final residual = 4.80902e-06, No Iterations 5
DILUPBiCGStab:  Solving for Uy, Initial residual = 0.0234219, Final residual = 7.61363e-06, No Iterations 5
DILUPBiCGStab:  Solving for Uz, Initial residual = 0.0424456, Final residual = 2.05486e-05, No Iterations 5
linear solve U 760182
nonePCG:  Solving for p, Initial residual = 0.014802, Final residual = 9.81126e-05, No Iterations 749
linear solve p 9070538
time step continuity errors : sum local = 4.41131e-10, global = -9.83827e-22, cumulative = -2.17157e-20
nonePCG:  Solving for p, Initial residual = 0.0135425, Final residual = 9.92242e-05, No Iterations 740
linear solve p 8945854
time step continuity errors : sum local = 4.4058e-10, global = -8.8389e-22, cumulative = -2.25996e-20
ExecutionTime = 336.91 s  ClockTime = 340 s

Time = 0.00048

Courant Number mean: 0.00502003 max: 0.0939906
DILUPBiCGStab:  Solving for Ux, Initial residual = 0.0138887, Final residual = 4.3688e-06, No Iterations 5
DILUPBiCGStab:  Solving for Uy, Initial residual = 0.0211918, Final residual = 6.73124e-06, No Iterations 5
DILUPBiCGStab:  Solving for Uz, Initial residual = 0.0388179, Final residual = 1.77021e-05, No Iterations 5
linear solve U 736168
nonePCG:  Solving for p, Initial residual = 0.0129705, Final residual = 9.81125e-05, No Iterations 743
linear solve p 8968971
time step continuity errors : sum local = 4.35544e-10, global = -9.71275e-22, cumulative = -2.35709e-20
nonePCG:  Solving for p, Initial residual = 0.0119315, Final residual = 9.68563e-05, No Iterations 737
linear solve p 8999806
time step continuity errors : sum local = 4.29564e-10, global = -1.02288e-21, cumulative = -2.45938e-20
ExecutionTime = 356.1 s  ClockTime = 359 s

Time = 0.00052

Courant Number mean: 0.00521376 max: 0.094244
DILUPBiCGStab:  Solving for Ux, Initial residual = 0.012778, Final residual = 4.02334e-06, No Iterations 5
DILUPBiCGStab:  Solving for Uy, Initial residual = 0.0193398, Final residual = 6.0349e-06, No Iterations 5
DILUPBiCGStab:  Solving for Uz, Initial residual = 0.0358547, Final residual = 1.52626e-05, No Iterations 5
linear solve U 749424
nonePCG:  Solving for p, Initial residual = 0.0115205, Final residual = 9.6776e-05, No Iterations 737
linear solve p 8899411
time step continuity errors : sum local = 4.35501e-10, global = -6.50124e-22, cumulative = -2.52439e-20
nonePCG:  Solving for p, Initial residual = 0.0106309, Final residual = 9.96507e-05, No Iterations 728
linear solve p 8804032
time step continuity errors : sum local = 4.43963e-10, global = -5.2324e-22, cumulative = -2.57671e-20
ExecutionTime = 375.05 s  ClockTime = 379 s

Time = 0.00056

Courant Number mean: 0.00539669 max: 0.0944656
DILUPBiCGStab:  Solving for Ux, Initial residual = 0.011831, Final residual = 3.74557e-06, No Iterations 5
DILUPBiCGStab:  Solving for Uy, Initial residual = 0.0177819, Final residual = 5.45529e-06, No Iterations 5
DILUPBiCGStab:  Solving for Uz, Initial residual = 0.0332256, Final residual = 1.36128e-05, No Iterations 5
linear solve U 755288
nonePCG:  Solving for p, Initial residual = 0.0104164, Final residual = 9.9892e-05, No Iterations 736
linear solve p 8897509
time step continuity errors : sum local = 4.44921e-10, global = -7.00572e-22, cumulative = -2.64677e-20
nonePCG:  Solving for p, Initial residual = 0.00961131, Final residual = 9.7782e-05, No Iterations 728
linear solve p 8852075
time step continuity errors : sum local = 4.35337e-10, global = -9.13168e-22, cumulative = -2.73809e-20
ExecutionTime = 394.04 s  ClockTime = 398 s

Time = 0.0006

Courant Number mean: 0.00557054 max: 0.0946614
DILUPBiCGStab:  Solving for Ux, Initial residual = 0.0110154, Final residual = 3.51661e-06, No Iterations 5
DILUPBiCGStab:  Solving for Uy, Initial residual = 0.0164497, Final residual = 4.97135e-06, No Iterations 5
DILUPBiCGStab:  Solving for Uz, Initial residual = 0.0310151, Final residual = 1.21075e-05, No Iterations 5
linear solve U 736960
nonePCG:  Solving for p, Initial residual = 0.00942531, Final residual = 9.8558e-05, No Iterations 732
linear solve p 8884651
time step continuity errors : sum local = 4.43731e-10, global = -8.78166e-22, cumulative = -2.8259e-20
nonePCG:  Solving for p, Initial residual = 0.00872608, Final residual = 9.91779e-05, No Iterations 722
linear solve p 8790005
time step continuity errors : sum local = 4.4326e-10, global = -7.25826e-22, cumulative = -2.89849e-20
ExecutionTime = 412.98 s  ClockTime = 417 s

Time = 0.00064

Courant Number mean: 0.00573581 max: 0.0948361
DILUPBiCGStab:  Solving for Ux, Initial residual = 0.0103033, Final residual = 3.32348e-06, No Iterations 5
DILUPBiCGStab:  Solving for Uy, Initial residual = 0.0153005, Final residual = 4.55831e-06, No Iterations 5
DILUPBiCGStab:  Solving for Uz, Initial residual = 0.0290279, Final residual = 1.10546e-05, No Iterations 5
linear solve U 749860
nonePCG:  Solving for p, Initial residual = 0.00866363, Final residual = 9.99828e-05, No Iterations 743
linear solve p 9048528
time step continuity errors : sum local = 4.46567e-10, global = -7.55098e-22, cumulative = -2.974e-20
nonePCG:  Solving for p, Initial residual = 0.007984, Final residual = 9.84006e-05, No Iterations 725
linear solve p 8779329
time step continuity errors : sum local = 4.3943e-10, global = -5.34441e-22, cumulative = -3.02744e-20
ExecutionTime = 432.06 s  ClockTime = 436 s

Time = 0.00068

Courant Number mean: 0.00589397 max: 0.0949933
DILUPBiCGStab:  Solving for Ux, Initial residual = 0.00967703, Final residual = 3.15707e-06, No Iterations 5
DILUPBiCGStab:  Solving for Uy, Initial residual = 0.0142967, Final residual = 4.20398e-06, No Iterations 5
DILUPBiCGStab:  Solving for Uz, Initial residual = 0.0273109, Final residual = 1.00396e-05, No Iterations 5
linear solve U 751087
nonePCG:  Solving for p, Initial residual = 0.00793809, Final residual = 9.90593e-05, No Iterations 732
linear solve p 9011584
time step continuity errors : sum local = 4.46564e-10, global = -5.09222e-22, cumulative = -3.07836e-20
nonePCG:  Solving for p, Initial residual = 0.00732691, Final residual = 9.96987e-05, No Iterations 718
linear solve p 8795508
time step continuity errors : sum local = 4.46685e-10, global = -4.54158e-22, cumulative = -3.12378e-20
ExecutionTime = 451.13 s  ClockTime = 455 s

Time = 0.00072

Courant Number mean: 0.00604524 max: 0.0951356
DILUPBiCGStab:  Solving for Ux, Initial residual = 0.00912184, Final residual = 3.01004e-06, No Iterations 5
DILUPBiCGStab:  Solving for Uy, Initial residual = 0.0134143, Final residual = 3.89646e-06, No Iterations 5
DILUPBiCGStab:  Solving for Uz, Initial residual = 0.0257484, Final residual = 9.30786e-06, No Iterations 5
linear solve U 753537
nonePCG:  Solving for p, Initial residual = 0.00742542, Final residual = 9.99058e-05, No Iterations 758
linear solve p 9159364
time step continuity errors : sum local = 4.47239e-10, global = -6.5801e-22, cumulative = -3.18958e-20
nonePCG:  Solving for p, Initial residual = 0.00684209, Final residual = 9.92979e-05, No Iterations 725
linear solve p 8832208
time step continuity errors : sum local = 4.44513e-10, global = -1.02309e-21, cumulative = -3.29189e-20
ExecutionTime = 470.35 s  ClockTime = 475 s

Time = 0.00076

Courant Number mean: 0.00619044 max: 0.0952653
DILUPBiCGStab:  Solving for Ux, Initial residual = 0.00862567, Final residual = 2.87807e-06, No Iterations 5
DILUPBiCGStab:  Solving for Uy, Initial residual = 0.0126311, Final residual = 3.62685e-06, No Iterations 5
DILUPBiCGStab:  Solving for Uz, Initial residual = 0.0243586, Final residual = 8.57133e-06, No Iterations 5
linear solve U 751150
nonePCG:  Solving for p, Initial residual = 0.00691346, Final residual = 9.99875e-05, No Iterations 722
linear solve p 8812006
time step continuity errors : sum local = 4.51264e-10, global = -7.26633e-22, cumulative = -3.36455e-20
nonePCG:  Solving for p, Initial residual = 0.00637595, Final residual = 9.89891e-05, No Iterations 711
linear solve p 8645696
time step continuity errors : sum local = 4.44624e-10, global = -7.66212e-22, cumulative = -3.44117e-20
ExecutionTime = 489.05 s  ClockTime = 493 s

Time = 0.0008

Courant Number mean: 0.00633025 max: 0.0953841
DILUPBiCGStab:  Solving for Ux, Initial residual = 0.00818017, Final residual = 2.75741e-06, No Iterations 5
DILUPBiCGStab:  Solving for Uy, Initial residual = 0.0119322, Final residual = 3.3881e-06, No Iterations 5
DILUPBiCGStab:  Solving for Uz, Initial residual = 0.023092, Final residual = 8.02935e-06, No Iterations 5
linear solve U 748768
nonePCG:  Solving for p, Initial residual = 0.00649828, Final residual = 9.89978e-05, No Iterations 750
linear solve p 9098985
time step continuity errors : sum local = 4.44216e-10, global = -5.27797e-22, cumulative = -3.49395e-20
nonePCG:  Solving for p, Initial residual = 0.00599905, Final residual = 9.86127e-05, No Iterations 718
linear solve p 8761828
time step continuity errors : sum local = 4.42557e-10, global = -2.98339e-22, cumulative = -3.52379e-20
ExecutionTime = 508.13 s  ClockTime = 513 s

End

Finalising parallel run
================================================================================
