hash: 19d97d86d307018921ba28b6be1f847b
/*---------------------------------------------------------------------------*\
| =========                 |                                                 |
| \\      /  F ield         | OpenFOAM: The Open Source CFD Toolbox           |
|  \\    /   O peration     | Version:  2112                                  |
|   \\  /    A nd           | Website:  www.openfoam.com                      |
|    \\/     M anipulation  |                                                 |
\*---------------------------------------------------------------------------*/
Build  : d44c8318f0-20220111 OPENFOAM=2112 version=v2112
Arch   : "LSB;label=32;scalar=64"
Exec   : icoFoam -parallel
Date   : Oct 06 2022
Time   : 12:08:11
Host   : hkn0419.localdomain
PID    : 2722451
I/O    : uncollated
Case   : /hkfs/work/workspace/scratch/eq4036-lidDrivenCavity/single_node/mesh/400/matrix_solver/CG_NoPrecond_PETSC_CUDA/mpiRank_of/4/base
nProcs : 4
Hosts  :
(
    (hkn0419.localdomain 4)
)
Pstream initialized with:
    floatTransfer      : 0
    nProcsSimpleSum    : 0
    commsType          : nonBlocking
    polling iterations : 0
trapFpe: Floating point exception trapping enabled (FOAM_SIGFPE).
fileModificationChecking : Monitoring run-time modified files using timeStampMaster (fileModificationSkew 5, maxFileModificationPolls 20)
allowSystemOperations : Allowing user-supplied system call operations

// * * * * * * * * * * * * * * * * * * * * * * * * * * * * * * * * * * * * * //
Create time

Create mesh for time = 0


PISO: Operating solver in PISO mode

Reading transportProperties

Reading field p

Reading field U

Reading/calculating face flux field phi


Starting time loop

Time = 2.5e-05

Courant Number mean: 0 max: 0
DILUPBiCGStab:  Solving for Ux, Initial residual = 1, Final residual = 0.00118713, No Iterations 5
DILUPBiCGStab:  Solving for Uy:  solution singularity
DILUPBiCGStab:  Solving for Uz:  solution singularity
linear solve U 11011337
Initializing PETSc
PETSc-cg:  Solving for p, Initial residual = 1, Final residual = 9.99568e-05, No Iterations 3256
linear solve p 17151403
time step continuity errors : sum local = 2.40992e-10, global = 1.93226e-23, cumulative = 1.93226e-23
PETSc-cg:  Solving for p, Initial residual = 0.716144, Final residual = 9.90851e-05, No Iterations 3237
linear solve p 12857172
time step continuity errors : sum local = 3.22366e-10, global = -1.50296e-23, cumulative = 4.29294e-24
ExecutionTime = 110.21 s  ClockTime = 112 s

Time = 5e-05

Courant Number mean: 0.00116777 max: 0.0751289
DILUPBiCGStab:  Solving for Ux, Initial residual = 0.159858, Final residual = 0.000699206, No Iterations 5
DILUPBiCGStab:  Solving for Uy, Initial residual = 0.348607, Final residual = 0.000549935, No Iterations 5
DILUPBiCGStab:  Solving for Uz, Initial residual = 0.997103, Final residual = 0.00258441, No Iterations 5
linear solve U 27292185
PETSc-cg:  Solving for p, Initial residual = 0.6549, Final residual = 9.91431e-05, No Iterations 3180
linear solve p 12639477
time step continuity errors : sum local = 3.48135e-10, global = 4.66344e-23, cumulative = 5.09274e-23
PETSc-cg:  Solving for p, Initial residual = 0.580434, Final residual = 9.87729e-05, No Iterations 3175
linear solve p 12617048
time step continuity errors : sum local = 3.52812e-10, global = 4.30207e-24, cumulative = 5.52295e-23
ExecutionTime = 178.46 s  ClockTime = 180 s

Time = 7.5e-05

Courant Number mean: 0.00178106 max: 0.0870165
DILUPBiCGStab:  Solving for Ux, Initial residual = 0.0661404, Final residual = 0.000197637, No Iterations 5
DILUPBiCGStab:  Solving for Uy, Initial residual = 0.138167, Final residual = 0.000139212, No Iterations 5
DILUPBiCGStab:  Solving for Uz, Initial residual = 0.430577, Final residual = 0.00127506, No Iterations 5
linear solve U 22102300
PETSc-cg:  Solving for p, Initial residual = 0.55682, Final residual = 9.99626e-05, No Iterations 3133
linear solve p 12430415
time step continuity errors : sum local = 2.52875e-10, global = -3.20979e-23, cumulative = 2.31316e-23
PETSc-cg:  Solving for p, Initial residual = 0.499731, Final residual = 9.98415e-05, No Iterations 3123
linear solve p 12410975
time step continuity errors : sum local = 2.47345e-10, global = -2.36795e-23, cumulative = -5.47926e-25
ExecutionTime = 241.12 s  ClockTime = 243 s

Time = 0.0001

Courant Number mean: 0.00220834 max: 0.0903159
DILUPBiCGStab:  Solving for Ux, Initial residual = 0.0436882, Final residual = 8.49395e-05, No Iterations 5
DILUPBiCGStab:  Solving for Uy, Initial residual = 0.0871973, Final residual = 5.74933e-05, No Iterations 5
DILUPBiCGStab:  Solving for Uz, Initial residual = 0.132543, Final residual = 0.000248578, No Iterations 5
linear solve U 30071218
PETSc-cg:  Solving for p, Initial residual = 0.320107, Final residual = 9.99507e-05, No Iterations 1487
linear solve p 6346262
time step continuity errors : sum local = 2.30086e-10, global = 3.86694e-23, cumulative = 3.81215e-23
PETSc-cg:  Solving for p, Initial residual = 0.265675, Final residual = 9.79137e-05, No Iterations 1466
linear solve p 6293596
time step continuity errors : sum local = 2.16847e-10, global = -5.65197e-23, cumulative = -1.83982e-23
ExecutionTime = 299.65 s  ClockTime = 301 s

Time = 0.000125

Courant Number mean: 0.00255413 max: 0.0919042
DILUPBiCGStab:  Solving for Ux, Initial residual = 0.0332524, Final residual = 5.10828e-05, No Iterations 5
DILUPBiCGStab:  Solving for Uy, Initial residual = 0.0630107, Final residual = 3.67645e-05, No Iterations 5
DILUPBiCGStab:  Solving for Uz, Initial residual = 0.0910234, Final residual = 0.000139387, No Iterations 5
linear solve U 30072924
PETSc-cg:  Solving for p, Initial residual = 0.213943, Final residual = 9.96404e-05, No Iterations 1436
linear solve p 6157818
time step continuity errors : sum local = 1.92419e-10, global = 3.83676e-23, cumulative = 1.99694e-23
PETSc-cg:  Solving for p, Initial residual = 0.180194, Final residual = 9.77144e-05, No Iterations 1433
linear solve p 6163648
time step continuity errors : sum local = 1.85674e-10, global = 1.55588e-23, cumulative = 3.55281e-23
ExecutionTime = 357.89 s  ClockTime = 360 s

Time = 0.00015

Courant Number mean: 0.00284935 max: 0.0928888
DILUPBiCGStab:  Solving for Ux, Initial residual = 0.0270466, Final residual = 3.35989e-05, No Iterations 5
DILUPBiCGStab:  Solving for Uy, Initial residual = 0.0494904, Final residual = 1.57018e-05, No Iterations 5
DILUPBiCGStab:  Solving for Uz, Initial residual = 0.0794061, Final residual = 0.00010523, No Iterations 5
linear solve U 30038971
PETSc-cg:  Solving for p, Initial residual = 0.12744, Final residual = 9.88582e-05, No Iterations 1450
linear solve p 6210274
time step continuity errors : sum local = 1.97541e-10, global = -3.06115e-23, cumulative = 4.91664e-24
PETSc-cg:  Solving for p, Initial residual = 0.104997, Final residual = 9.90705e-05, No Iterations 1374
linear solve p 5936013
time step continuity errors : sum local = 1.8878e-10, global = -4.56772e-23, cumulative = -4.07605e-23
ExecutionTime = 415.91 s  ClockTime = 418 s

Time = 0.000175

Courant Number mean: 0.00310981 max: 0.0935747
DILUPBiCGStab:  Solving for Ux, Initial residual = 0.0228825, Final residual = 2.37574e-05, No Iterations 5
DILUPBiCGStab:  Solving for Uy, Initial residual = 0.0407639, Final residual = 1.42395e-05, No Iterations 5
DILUPBiCGStab:  Solving for Uz, Initial residual = 0.0674738, Final residual = 6.92919e-05, No Iterations 5
linear solve U 30007729
PETSc-cg:  Solving for p, Initial residual = 0.0871436, Final residual = 9.99367e-05, No Iterations 1426
linear solve p 6118454
time step continuity errors : sum local = 1.85716e-10, global = -2.68672e-23, cumulative = -6.76278e-23
PETSc-cg:  Solving for p, Initial residual = 0.0725682, Final residual = 9.95145e-05, No Iterations 1379
linear solve p 5947376
time step continuity errors : sum local = 1.78983e-10, global = 1.15541e-22, cumulative = 4.79134e-23
ExecutionTime = 473.82 s  ClockTime = 476 s

Time = 0.0002

Courant Number mean: 0.00334434 max: 0.094089
DILUPBiCGStab:  Solving for Ux, Initial residual = 0.0198933, Final residual = 1.84317e-05, No Iterations 5
DILUPBiCGStab:  Solving for Uy, Initial residual = 0.0346056, Final residual = 6.60725e-06, No Iterations 5
DILUPBiCGStab:  Solving for Uz, Initial residual = 0.06039, Final residual = 5.09954e-05, No Iterations 5
linear solve U 30084269
PETSc-cg:  Solving for p, Initial residual = 0.0554771, Final residual = 9.96305e-05, No Iterations 2976
linear solve p 11865228
time step continuity errors : sum local = 1.7618e-10, global = 3.59754e-23, cumulative = 8.38888e-23
PETSc-cg:  Solving for p, Initial residual = 0.0472305, Final residual = 9.82136e-05, No Iterations 1441
linear solve p 6172048
time step continuity errors : sum local = 1.89178e-10, global = -4.04259e-23, cumulative = 4.3463e-23
ExecutionTime = 537.75 s  ClockTime = 540 s

Time = 0.000225

Courant Number mean: 0.00355866 max: 0.0944924
DILUPBiCGStab:  Solving for Ux, Initial residual = 0.0176051, Final residual = 1.42018e-05, No Iterations 5
DILUPBiCGStab:  Solving for Uy, Initial residual = 0.0301065, Final residual = 6.61824e-06, No Iterations 5
DILUPBiCGStab:  Solving for Uz, Initial residual = 0.0551812, Final residual = 5.00106e-05, No Iterations 5
linear solve U 30023578
PETSc-cg:  Solving for p, Initial residual = 0.0410965, Final residual = 9.97647e-05, No Iterations 2957
linear solve p 11792601
time step continuity errors : sum local = 1.75094e-10, global = -1.2592e-22, cumulative = -8.2457e-23
PETSc-cg:  Solving for p, Initial residual = 0.0352652, Final residual = 9.9924e-05, No Iterations 2942
linear solve p 11741245
time step continuity errors : sum local = 1.75436e-10, global = 7.09708e-23, cumulative = -1.14862e-23
ExecutionTime = 607.12 s  ClockTime = 610 s

Time = 0.00025

Courant Number mean: 0.00375674 max: 0.0948201
DILUPBiCGStab:  Solving for Ux, Initial residual = 0.0158199, Final residual = 1.1564e-05, No Iterations 5
DILUPBiCGStab:  Solving for Uy, Initial residual = 0.0265883, Final residual = 4.02783e-06, No Iterations 5
DILUPBiCGStab:  Solving for Uz, Initial residual = 0.0468496, Final residual = 3.32689e-05, No Iterations 5
linear solve U 30030765
PETSc-cg:  Solving for p, Initial residual = 0.0294955, Final residual = 9.95421e-05, No Iterations 1275
linear solve p 5558790
time step continuity errors : sum local = 1.88116e-10, global = 3.74222e-23, cumulative = 2.5936e-23
PETSc-cg:  Solving for p, Initial residual = 0.0259889, Final residual = 9.98443e-05, No Iterations 1238
linear solve p 5427060
time step continuity errors : sum local = 1.80449e-10, global = 4.67357e-23, cumulative = 7.26717e-23
ExecutionTime = 663.95 s  ClockTime = 667 s

Time = 0.000275

Courant Number mean: 0.00394124 max: 0.0950931
DILUPBiCGStab:  Solving for Ux, Initial residual = 0.0143628, Final residual = 9.41863e-06, No Iterations 5
DILUPBiCGStab:  Solving for Uy, Initial residual = 0.0238301, Final residual = 3.84038e-06, No Iterations 5
DILUPBiCGStab:  Solving for Uz, Initial residual = 0.0433918, Final residual = 2.72532e-05, No Iterations 5
linear solve U 30031081
PETSc-cg:  Solving for p, Initial residual = 0.0236657, Final residual = 9.97431e-05, No Iterations 1310
linear solve p 5689115
time step continuity errors : sum local = 1.8179e-10, global = -1.31716e-23, cumulative = 5.95001e-23
PETSc-cg:  Solving for p, Initial residual = 0.0211884, Final residual = 9.94149e-05, No Iterations 1257
linear solve p 5508761
time step continuity errors : sum local = 1.73949e-10, global = -4.87579e-23, cumulative = 1.07423e-23
ExecutionTime = 721.01 s  ClockTime = 724 s

Time = 0.0003

Courant Number mean: 0.00411426 max: 0.095325
DILUPBiCGStab:  Solving for Ux, Initial residual = 0.0131683, Final residual = 7.84018e-06, No Iterations 5
DILUPBiCGStab:  Solving for Uy, Initial residual = 0.0215589, Final residual = 2.9151e-06, No Iterations 5
DILUPBiCGStab:  Solving for Uz, Initial residual = 0.0406377, Final residual = 2.47967e-05, No Iterations 5
linear solve U 30034269
PETSc-cg:  Solving for p, Initial residual = 0.0186952, Final residual = 9.90754e-05, No Iterations 1435
linear solve p 6152780
time step continuity errors : sum local = 1.90291e-10, global = 3.6458e-23, cumulative = 4.72003e-23
PETSc-cg:  Solving for p, Initial residual = 0.0171578, Final residual = 9.98082e-05, No Iterations 1346
linear solve p 5839725
time step continuity errors : sum local = 1.81153e-10, global = -5.6923e-23, cumulative = -9.72269e-24
ExecutionTime = 778.89 s  ClockTime = 782 s

Time = 0.000325

Courant Number mean: 0.00427751 max: 0.0955253
DILUPBiCGStab:  Solving for Ux, Initial residual = 0.0121499, Final residual = 6.56478e-06, No Iterations 5
DILUPBiCGStab:  Solving for Uy, Initial residual = 0.0197087, Final residual = 2.66557e-06, No Iterations 5
DILUPBiCGStab:  Solving for Uz, Initial residual = 0.0377249, Final residual = 2.38524e-05, No Iterations 5
linear solve U 30113661
PETSc-cg:  Solving for p, Initial residual = 0.0162891, Final residual = 9.88033e-05, No Iterations 1369
linear solve p 5905965
time step continuity errors : sum local = 1.84284e-10, global = -5.84326e-23, cumulative = -6.81552e-23
PETSc-cg:  Solving for p, Initial residual = 0.0150527, Final residual = 9.96534e-05, No Iterations 1279
linear solve p 5586238
time step continuity errors : sum local = 1.75248e-10, global = 9.6806e-24, cumulative = -5.84746e-23
ExecutionTime = 836.31 s  ClockTime = 840 s

Time = 0.00035

Courant Number mean: 0.00443218 max: 0.0957003
DILUPBiCGStab:  Solving for Ux, Initial residual = 0.0112931, Final residual = 5.5702e-06, No Iterations 5
DILUPBiCGStab:  Solving for Uy, Initial residual = 0.0181141, Final residual = 2.24692e-06, No Iterations 5
DILUPBiCGStab:  Solving for Uz, Initial residual = 0.0353178, Final residual = 2.37029e-05, No Iterations 5
linear solve U 29988751
PETSc-cg:  Solving for p, Initial residual = 0.014031, Final residual = 9.9371e-05, No Iterations 2903
linear solve p 11593756
time step continuity errors : sum local = 1.73197e-10, global = -4.4658e-23, cumulative = -1.03133e-22
PETSc-cg:  Solving for p, Initial residual = 0.0131357, Final residual = 9.97845e-05, No Iterations 2899
linear solve p 11578611
time step continuity errors : sum local = 1.74009e-10, global = -1.47515e-22, cumulative = -2.50647e-22
ExecutionTime = 905.34 s  ClockTime = 909 s

Time = 0.000375

Courant Number mean: 0.00457926 max: 0.0958553
DILUPBiCGStab:  Solving for Ux, Initial residual = 0.0105407, Final residual = 4.76274e-06, No Iterations 5
DILUPBiCGStab:  Solving for Uy, Initial residual = 0.0167768, Final residual = 2.03857e-06, No Iterations 5
DILUPBiCGStab:  Solving for Uz, Initial residual = 0.0312998, Final residual = 1.40455e-05, No Iterations 5
linear solve U 30014869
PETSc-cg:  Solving for p, Initial residual = 0.0127083, Final residual = 9.9742e-05, No Iterations 1182
linear solve p 5216904
time step continuity errors : sum local = 1.78866e-10, global = -1.48799e-22, cumulative = -3.99446e-22
PETSc-cg:  Solving for p, Initial residual = 0.0119415, Final residual = 9.93626e-05, No Iterations 1172
linear solve p 5199249
time step continuity errors : sum local = 1.75351e-10, global = 8.78242e-23, cumulative = -3.11622e-22
ExecutionTime = 961.76 s  ClockTime = 965 s

Time = 0.0004

Courant Number mean: 0.00471974 max: 0.0959935
DILUPBiCGStab:  Solving for Ux, Initial residual = 0.00988792, Final residual = 4.11492e-06, No Iterations 5
DILUPBiCGStab:  Solving for Uy, Initial residual = 0.0156099, Final residual = 1.84565e-06, No Iterations 5
DILUPBiCGStab:  Solving for Uz, Initial residual = 0.029745, Final residual = 1.03833e-05, No Iterations 5
linear solve U 30048775
PETSc-cg:  Solving for p, Initial residual = 0.0113714, Final residual = 9.97618e-05, No Iterations 1187
linear solve p 5234416
time step continuity errors : sum local = 1.79497e-10, global = -3.93751e-24, cumulative = -3.15559e-22
PETSc-cg:  Solving for p, Initial residual = 0.0107655, Final residual = 9.97299e-05, No Iterations 1173
linear solve p 5197905
time step continuity errors : sum local = 1.75024e-10, global = -1.13059e-22, cumulative = -4.28618e-22
ExecutionTime = 1018.07 s  ClockTime = 1022 s

Time = 0.000425

Courant Number mean: 0.00485411 max: 0.0961178
DILUPBiCGStab:  Solving for Ux, Initial residual = 0.00930808, Final residual = 3.59086e-06, No Iterations 5
DILUPBiCGStab:  Solving for Uy, Initial residual = 0.0146024, Final residual = 1.68664e-06, No Iterations 5
DILUPBiCGStab:  Solving for Uz, Initial residual = 0.0279347, Final residual = 1.05303e-05, No Iterations 5
linear solve U 30070355
PETSc-cg:  Solving for p, Initial residual = 0.0103044, Final residual = 9.96319e-05, No Iterations 1305
linear solve p 5672128
time step continuity errors : sum local = 1.80558e-10, global = 6.37381e-23, cumulative = -3.6488e-22
PETSc-cg:  Solving for p, Initial residual = 0.00976635, Final residual = 9.95567e-05, No Iterations 1274
linear solve p 5581089
time step continuity errors : sum local = 1.76228e-10, global = 4.57281e-23, cumulative = -3.19152e-22
ExecutionTime = 1075.2 s  ClockTime = 1079 s

Time = 0.00045

Courant Number mean: 0.00498313 max: 0.0962305
DILUPBiCGStab:  Solving for Ux, Initial residual = 0.00879802, Final residual = 3.16341e-06, No Iterations 5
DILUPBiCGStab:  Solving for Uy, Initial residual = 0.0137038, Final residual = 1.52968e-06, No Iterations 5
DILUPBiCGStab:  Solving for Uz, Initial residual = 0.0266951, Final residual = 1.0323e-05, No Iterations 5
linear solve U 30021728
PETSc-cg:  Solving for p, Initial residual = 0.00951857, Final residual = 9.87352e-05, No Iterations 1298
linear solve p 5663679
time step continuity errors : sum local = 1.79916e-10, global = 1.71736e-22, cumulative = -1.47415e-22
PETSc-cg:  Solving for p, Initial residual = 0.00903828, Final residual = 9.99758e-05, No Iterations 1217
linear solve p 5347804
time step continuity errors : sum local = 1.76254e-10, global = -1.69926e-22, cumulative = -3.17342e-22
ExecutionTime = 1132.1 s  ClockTime = 1136 s

Time = 0.000475

Courant Number mean: 0.00510714 max: 0.0963332
DILUPBiCGStab:  Solving for Ux, Initial residual = 0.00833534, Final residual = 2.8118e-06, No Iterations 5
DILUPBiCGStab:  Solving for Uy, Initial residual = 0.0129194, Final residual = 1.40108e-06, No Iterations 5
DILUPBiCGStab:  Solving for Uz, Initial residual = 0.0252549, Final residual = 1.07464e-05, No Iterations 5
linear solve U 30077777
PETSc-cg:  Solving for p, Initial residual = 0.00891194, Final residual = 9.96556e-05, No Iterations 1310
linear solve p 5691223
time step continuity errors : sum local = 1.83157e-10, global = 1.13039e-22, cumulative = -2.04303e-22
PETSc-cg:  Solving for p, Initial residual = 0.00846096, Final residual = 9.9887e-05, No Iterations 1284
linear solve p 5612411
time step continuity errors : sum local = 1.77563e-10, global = -3.27423e-23, cumulative = -2.37045e-22
ExecutionTime = 1189.32 s  ClockTime = 1194 s

Time = 0.0005

Courant Number mean: 0.00522673 max: 0.0964273
DILUPBiCGStab:  Solving for Ux, Initial residual = 0.00792604, Final residual = 2.51919e-06, No Iterations 5
DILUPBiCGStab:  Solving for Uy, Initial residual = 0.0122035, Final residual = 1.28424e-06, No Iterations 5
DILUPBiCGStab:  Solving for Uz, Initial residual = 0.0241053, Final residual = 1.1035e-05, No Iterations 5
linear solve U 30043382
PETSc-cg:  Solving for p, Initial residual = 0.00833041, Final residual = 9.87536e-05, No Iterations 1296
linear solve p 5634500
time step continuity errors : sum local = 1.82901e-10, global = -4.51227e-23, cumulative = -2.82168e-22
PETSc-cg:  Solving for p, Initial residual = 0.0079192, Final residual = 9.98855e-05, No Iterations 1180
linear solve p 5209531
time step continuity errors : sum local = 1.77129e-10, global = 3.31024e-23, cumulative = -2.49066e-22
ExecutionTime = 1246.06 s  ClockTime = 1250 s

End

Finalizing PETSc
Finalising parallel run
================================================================================
hash: 34ed4fbf1d8d71ac7bd77f3b92cc431b
/*---------------------------------------------------------------------------*\
| =========                 |                                                 |
| \\      /  F ield         | OpenFOAM: The Open Source CFD Toolbox           |
|  \\    /   O peration     | Version:  2112                                  |
|   \\  /    A nd           | Website:  www.openfoam.com                      |
|    \\/     M anipulation  |                                                 |
\*---------------------------------------------------------------------------*/
Build  : d44c8318f0-20220111 OPENFOAM=2112 version=v2112
Arch   : "LSB;label=32;scalar=64"
Exec   : icoFoam -parallel
Date   : Oct 06 2022
Time   : 12:08:12
Host   : hkn0817.localdomain
PID    : 2378256
I/O    : uncollated
Case   : /hkfs/work/workspace/scratch/eq4036-lidDrivenCavity/single_node/mesh/400/matrix_solver/CG_NoPrecond_Ginkgo_CUDA/mpiRank_gko/4/base
nProcs : 4
Hosts  :
(
    (hkn0817.localdomain 4)
)
Pstream initialized with:
    floatTransfer      : 0
    nProcsSimpleSum    : 0
    commsType          : nonBlocking
    polling iterations : 0
trapFpe: Floating point exception trapping enabled (FOAM_SIGFPE).
fileModificationChecking : Monitoring run-time modified files using timeStampMaster (fileModificationSkew 5, maxFileModificationPolls 20)
allowSystemOperations : Allowing user-supplied system call operations

// * * * * * * * * * * * * * * * * * * * * * * * * * * * * * * * * * * * * * //
Create time

Create mesh for time = 0


PISO: Operating solver in PISO mode

Reading transportProperties

Reading field p

Reading field U

Reading/calculating face flux field phi


Starting time loop

Time = 2.5e-05

Courant Number mean: 0 max: 0
DILUPBiCGStab:  Solving for Ux, Initial residual = 1, Final residual = 0.00118713, No Iterations 5
DILUPBiCGStab:  Solving for Uy:  solution singularity
DILUPBiCGStab:  Solving for Uz:  solution singularity
linear solve U 10956124
[OGL LOG][lduLduBase.H:113] Initialising OGL
	OGL commit:  4c9ddc8
	Branch: distributed-update 
	Ginkgo version: 1.5.0 ( develop)
	Ginkgo commit: 33f63e9
	MPI is GPU aware: 1
	Forces host buffer based communication: 0
	CPU ranks per GPU: 1
	Matrix format: Coo
	End OGL_INFO
[OGL LOG][Proc: 0]global_index_init: 0.023 [ms]
[OGL LOG][Proc: 0]p_local_cols: call_init: 0 [ms]
[OGL LOG][Proc: 0]p_local_rows: call_init: 0 [ms]
[OGL LOG][Proc: 0]p_local_ldu_map: call_init: 0 [ms]
[OGL LOG][Proc: 0]p_local_coeffs: call_init: 0 [ms]
[OGL LOG][Proc: 0]p_non_local_cols: call_init: 0 [ms]
[OGL LOG][Proc: 0]p_non_local_rows: call_init: 0 [ms]
[OGL LOG][Proc: 0]p_non_local_ldu_map: call_init: 0 [ms]
[OGL LOG][Proc: 0]p_non_local_coeffs: call_init: 0 [ms]
[OGL LOG][Proc: 0]init_local_sparsity_pattern: 2802.57 [ms]
[OGL LOG][Proc: 0]init_non_local_sparsity_pattern: 159.287 [ms]
[OGL LOG][Proc: 0]update_local_matrix_data: 877.906 [ms]
[OGL LOG][Proc: 0]update_non_local_matrix_data: 18.696 [ms]
[OGL LOG][Proc: 0]device_partition: call_init: 0 [ms]
[OGL LOG][Proc: 0]p_matrix: call_init: 0 [ms]
[OGL LOG][Proc: 0]p_rhs: call_init: 0 [ms]
[OGL LOG][Proc: 0]p_solution: call_init: 0 [ms]
[OGL LOG][Proc: 0]init_precond: 0.06 [ms]
[OGL LOG][StoppingCriterion.H:588] Creating stopping criterion with minIter 0 frequency 10
[OGL LOG][Proc: 0]generate_solver: 0.016 [ms]
[OGL LOG][Proc: 0]solve: 12623.1 [ms]
[OGL LOG][Proc: 0]copy_x_back: 53.209 [ms]
[OGL LOG][lduLduBase.H:303] 
Statistics:
	Time per iteration: 3870 [mu s]
	Time per residual norm calculation: 241.000000 [mu s]
	Time per iteration and DOF: 0.060469 [ns]
	Retrieve results bandwith 2.405000 [GByte/s]
nonecudaGKOCG:  Solving for p, Initial residual = 1, Final residual = 9.31958e-05, No Iterations 3261
linear solve p 20047649
time step continuity errors : sum local = 2.24692e-10, global = 2.98041e-23, cumulative = 2.98041e-23
[OGL LOG][Proc: 0]global_index_init: 0.011 [ms]
[OGL LOG][Proc: 0]p_local_coeffs: call_update: 0.001 [ms]
[OGL LOG][Proc: 0]p_non_local_coeffs: call_update: 0 [ms]
[OGL LOG][Proc: 0]update_local_matrix_data: 824.93 [ms]
[OGL LOG][Proc: 0]update_non_local_matrix_data: 1.703 [ms]
[OGL LOG][Proc: 0]p_matrix: call_update: 124.311 [ms]
[OGL LOG][Proc: 0]p_rhs: call_update: 55.747 [ms]
[OGL LOG][Proc: 0]init_precond: 0.033 [ms]
[OGL LOG][StoppingCriterion.H:588] Creating stopping criterion with minIter 1956 frequency 10
[OGL LOG][Proc: 0]generate_solver: 0.001 [ms]
[OGL LOG][Proc: 0]solve: 12479.3 [ms]
[OGL LOG][Proc: 0]copy_x_back: 109.136 [ms]
[OGL LOG][lduLduBase.H:303] 
Statistics:
	Time per iteration: 3850 [mu s]
	Time per residual norm calculation: 185.000000 [mu s]
	Time per iteration and DOF: 0.060156 [ns]
	Retrieve results bandwith 1.172000 [GByte/s]
nonecudaGKOCG:  Solving for p, Initial residual = 0.716144, Final residual = 9.36609e-05, No Iterations 3241
linear solve p 13691056
time step continuity errors : sum local = 3.04717e-10, global = 2.78543e-23, cumulative = 5.76584e-23
ExecutionTime = 113.76 s  ClockTime = 115 s

Time = 5e-05

Courant Number mean: 0.00116777 max: 0.0751289
DILUPBiCGStab:  Solving for Ux, Initial residual = 0.159858, Final residual = 0.000699206, No Iterations 5
DILUPBiCGStab:  Solving for Uy, Initial residual = 0.348607, Final residual = 0.000549934, No Iterations 5
DILUPBiCGStab:  Solving for Uz, Initial residual = 0.997107, Final residual = 0.00258432, No Iterations 5
linear solve U 22008680
[OGL LOG][Proc: 0]global_index_init: 0.009 [ms]
[OGL LOG][Proc: 0]p_local_coeffs: call_update: 0 [ms]
[OGL LOG][Proc: 0]p_non_local_coeffs: call_update: 0 [ms]
[OGL LOG][Proc: 0]update_local_matrix_data: 832.654 [ms]
[OGL LOG][Proc: 0]update_non_local_matrix_data: 1.581 [ms]
[OGL LOG][Proc: 0]p_matrix: call_update: 124.491 [ms]
[OGL LOG][Proc: 0]p_rhs: call_update: 55.186 [ms]
[OGL LOG][Proc: 0]init_precond: 0.026 [ms]
[OGL LOG][StoppingCriterion.H:588] Creating stopping criterion with minIter 1944 frequency 10
[OGL LOG][Proc: 0]generate_solver: 0.002 [ms]
[OGL LOG][Proc: 0]solve: 12248.2 [ms]
[OGL LOG][Proc: 0]copy_x_back: 108.133 [ms]
[OGL LOG][lduLduBase.H:303] 
Statistics:
	Time per iteration: 3850 [mu s]
	Time per residual norm calculation: 181.000000 [mu s]
	Time per iteration and DOF: 0.060156 [ns]
	Retrieve results bandwith 1.183000 [GByte/s]
nonecudaGKOCG:  Solving for p, Initial residual = 0.654901, Final residual = 9.89118e-05, No Iterations 3181
linear solve p 13464843
time step continuity errors : sum local = 3.4732e-10, global = -2.46246e-23, cumulative = 3.30338e-23
[OGL LOG][Proc: 0]global_index_init: 0.011 [ms]
[OGL LOG][Proc: 0]p_local_coeffs: call_update: 0 [ms]
[OGL LOG][Proc: 0]p_non_local_coeffs: call_update: 0 [ms]
[OGL LOG][Proc: 0]update_local_matrix_data: 829.124 [ms]
[OGL LOG][Proc: 0]update_non_local_matrix_data: 1.221 [ms]
[OGL LOG][Proc: 0]p_matrix: call_update: 124.619 [ms]
[OGL LOG][Proc: 0]p_rhs: call_update: 55.945 [ms]
[OGL LOG][Proc: 0]init_precond: 0.026 [ms]
[OGL LOG][StoppingCriterion.H:588] Creating stopping criterion with minIter 1908 frequency 10
[OGL LOG][Proc: 0]generate_solver: 0.002 [ms]
[OGL LOG][Proc: 0]solve: 12247.5 [ms]
[OGL LOG][Proc: 0]copy_x_back: 108.52 [ms]
[OGL LOG][lduLduBase.H:303] 
Statistics:
	Time per iteration: 3850 [mu s]
	Time per residual norm calculation: 180.000000 [mu s]
	Time per iteration and DOF: 0.060156 [ns]
	Retrieve results bandwith 1.179000 [GByte/s]
nonecudaGKOCG:  Solving for p, Initial residual = 0.580434, Final residual = 8.79467e-05, No Iterations 3181
linear solve p 13462914
time step continuity errors : sum local = 3.1414e-10, global = 1.99824e-23, cumulative = 5.30163e-23
ExecutionTime = 178.17 s  ClockTime = 179 s

Time = 7.5e-05

Courant Number mean: 0.00178106 max: 0.0870165
DILUPBiCGStab:  Solving for Ux, Initial residual = 0.0661404, Final residual = 0.000197638, No Iterations 5
DILUPBiCGStab:  Solving for Uy, Initial residual = 0.138167, Final residual = 0.00013921, No Iterations 5
DILUPBiCGStab:  Solving for Uz, Initial residual = 0.430371, Final residual = 0.00127383, No Iterations 5
linear solve U 22005868
[OGL LOG][Proc: 0]global_index_init: 0.011 [ms]
[OGL LOG][Proc: 0]p_local_coeffs: call_update: 0 [ms]
[OGL LOG][Proc: 0]p_non_local_coeffs: call_update: 0 [ms]
[OGL LOG][Proc: 0]update_local_matrix_data: 829.178 [ms]
[OGL LOG][Proc: 0]update_non_local_matrix_data: 1.264 [ms]
[OGL LOG][Proc: 0]p_matrix: call_update: 124.489 [ms]
[OGL LOG][Proc: 0]p_rhs: call_update: 55.197 [ms]
[OGL LOG][Proc: 0]init_precond: 0.026 [ms]
[OGL LOG][StoppingCriterion.H:588] Creating stopping criterion with minIter 1908 frequency 10
[OGL LOG][Proc: 0]generate_solver: 0.001 [ms]
[OGL LOG][Proc: 0]solve: 12093.4 [ms]
[OGL LOG][Proc: 0]copy_x_back: 108.383 [ms]
[OGL LOG][lduLduBase.H:303] 
Statistics:
	Time per iteration: 3850 [mu s]
	Time per residual norm calculation: 183.000000 [mu s]
	Time per iteration and DOF: 0.060156 [ns]
	Retrieve results bandwith 1.180000 [GByte/s]
nonecudaGKOCG:  Solving for p, Initial residual = 0.556817, Final residual = 9.11416e-05, No Iterations 3141
linear solve p 13306618
time step continuity errors : sum local = 2.3056e-10, global = -3.88439e-23, cumulative = 1.41724e-23
[OGL LOG][Proc: 0]global_index_init: 0.01 [ms]
[OGL LOG][Proc: 0]p_local_coeffs: call_update: 0 [ms]
[OGL LOG][Proc: 0]p_non_local_coeffs: call_update: 0 [ms]
[OGL LOG][Proc: 0]update_local_matrix_data: 829.521 [ms]
[OGL LOG][Proc: 0]update_non_local_matrix_data: 1.228 [ms]
[OGL LOG][Proc: 0]p_matrix: call_update: 124.655 [ms]
[OGL LOG][Proc: 0]p_rhs: call_update: 55.376 [ms]
[OGL LOG][Proc: 0]init_precond: 0.025 [ms]
[OGL LOG][StoppingCriterion.H:588] Creating stopping criterion with minIter 1884 frequency 10
[OGL LOG][Proc: 0]generate_solver: 0.001 [ms]
[OGL LOG][Proc: 0]solve: 12056.2 [ms]
[OGL LOG][Proc: 0]copy_x_back: 109.504 [ms]
[OGL LOG][lduLduBase.H:303] 
Statistics:
	Time per iteration: 3850 [mu s]
	Time per residual norm calculation: 183.000000 [mu s]
	Time per iteration and DOF: 0.060156 [ns]
	Retrieve results bandwith 1.168000 [GByte/s]
nonecudaGKOCG:  Solving for p, Initial residual = 0.499724, Final residual = 9.27288e-05, No Iterations 3131
linear solve p 13275356
time step continuity errors : sum local = 2.29723e-10, global = -5.02095e-23, cumulative = -3.60371e-23
ExecutionTime = 242.22 s  ClockTime = 243 s

Time = 0.0001

Courant Number mean: 0.00220834 max: 0.0903159
DILUPBiCGStab:  Solving for Ux, Initial residual = 0.0436882, Final residual = 8.494e-05, No Iterations 5
DILUPBiCGStab:  Solving for Uy, Initial residual = 0.0871973, Final residual = 5.74906e-05, No Iterations 5
DILUPBiCGStab:  Solving for Uz, Initial residual = 0.13237, Final residual = 0.000247876, No Iterations 5
linear solve U 22037487
[OGL LOG][Proc: 0]global_index_init: 0.011 [ms]
[OGL LOG][Proc: 0]p_local_coeffs: call_update: 0 [ms]
[OGL LOG][Proc: 0]p_non_local_coeffs: call_update: 0 [ms]
[OGL LOG][Proc: 0]update_local_matrix_data: 830.275 [ms]
[OGL LOG][Proc: 0]update_non_local_matrix_data: 1.282 [ms]
[OGL LOG][Proc: 0]p_matrix: call_update: 124.691 [ms]
[OGL LOG][Proc: 0]p_rhs: call_update: 55.137 [ms]
[OGL LOG][Proc: 0]init_precond: 0.024 [ms]
[OGL LOG][StoppingCriterion.H:588] Creating stopping criterion with minIter 1878 frequency 10
[OGL LOG][Proc: 0]generate_solver: 0.001 [ms]
[OGL LOG][Proc: 0]solve: 11944.8 [ms]
[OGL LOG][Proc: 0]copy_x_back: 108.294 [ms]
[OGL LOG][lduLduBase.H:303] 
Statistics:
	Time per iteration: 3851 [mu s]
	Time per residual norm calculation: 190.000000 [mu s]
	Time per iteration and DOF: 0.060172 [ns]
	Retrieve results bandwith 1.181000 [GByte/s]
nonecudaGKOCG:  Solving for p, Initial residual = 0.32007, Final residual = 9.01597e-05, No Iterations 3101
linear solve p 13176387
time step continuity errors : sum local = 1.94022e-10, global = 2.06318e-23, cumulative = -1.54054e-23
[OGL LOG][Proc: 0]global_index_init: 0.011 [ms]
[OGL LOG][Proc: 0]p_local_coeffs: call_update: 0 [ms]
[OGL LOG][Proc: 0]p_non_local_coeffs: call_update: 0 [ms]
[OGL LOG][Proc: 0]update_local_matrix_data: 831.244 [ms]
[OGL LOG][Proc: 0]update_non_local_matrix_data: 1.937 [ms]
[OGL LOG][Proc: 0]p_matrix: call_update: 123.938 [ms]
[OGL LOG][Proc: 0]p_rhs: call_update: 55.991 [ms]
[OGL LOG][Proc: 0]init_precond: 0.027 [ms]
[OGL LOG][StoppingCriterion.H:588] Creating stopping criterion with minIter 1860 frequency 10
[OGL LOG][Proc: 0]generate_solver: 0.001 [ms]
[OGL LOG][Proc: 0]solve: 11902.8 [ms]
[OGL LOG][Proc: 0]copy_x_back: 109.291 [ms]
[OGL LOG][lduLduBase.H:303] 
Statistics:
	Time per iteration: 3850 [mu s]
	Time per residual norm calculation: 181.000000 [mu s]
	Time per iteration and DOF: 0.060156 [ns]
	Retrieve results bandwith 1.171000 [GByte/s]
nonecudaGKOCG:  Solving for p, Initial residual = 0.265625, Final residual = 9.75647e-05, No Iterations 3091
linear solve p 13121329
time step continuity errors : sum local = 2.11519e-10, global = 1.83037e-23, cumulative = 2.89834e-24
ExecutionTime = 306.12 s  ClockTime = 307 s

Time = 0.000125

Courant Number mean: 0.00255413 max: 0.0919042
DILUPBiCGStab:  Solving for Ux, Initial residual = 0.0332573, Final residual = 5.10925e-05, No Iterations 5
DILUPBiCGStab:  Solving for Uy, Initial residual = 0.0629923, Final residual = 3.67502e-05, No Iterations 5
DILUPBiCGStab:  Solving for Uz, Initial residual = 0.0877208, Final residual = 0.000132377, No Iterations 5
linear solve U 22112121
[OGL LOG][Proc: 0]global_index_init: 0.011 [ms]
[OGL LOG][Proc: 0]p_local_coeffs: call_update: 0 [ms]
[OGL LOG][Proc: 0]p_non_local_coeffs: call_update: 0 [ms]
[OGL LOG][Proc: 0]update_local_matrix_data: 831.225 [ms]
[OGL LOG][Proc: 0]update_non_local_matrix_data: 1.953 [ms]
[OGL LOG][Proc: 0]p_matrix: call_update: 123.97 [ms]
[OGL LOG][Proc: 0]p_rhs: call_update: 55.092 [ms]
[OGL LOG][Proc: 0]init_precond: 0.029 [ms]
[OGL LOG][StoppingCriterion.H:588] Creating stopping criterion with minIter 1854 frequency 10
[OGL LOG][Proc: 0]generate_solver: 0.001 [ms]
[OGL LOG][Proc: 0]solve: 11555.3 [ms]
[OGL LOG][Proc: 0]copy_x_back: 108.301 [ms]
[OGL LOG][lduLduBase.H:303] 
Statistics:
	Time per iteration: 3850 [mu s]
	Time per residual norm calculation: 186.000000 [mu s]
	Time per iteration and DOF: 0.060156 [ns]
	Retrieve results bandwith 1.181000 [GByte/s]
nonecudaGKOCG:  Solving for p, Initial residual = 0.213886, Final residual = 8.69368e-05, No Iterations 3001
linear solve p 12770894
time step continuity errors : sum local = 1.65825e-10, global = -5.14874e-23, cumulative = -4.8589e-23
[OGL LOG][Proc: 0]global_index_init: 0.009 [ms]
[OGL LOG][Proc: 0]p_local_coeffs: call_update: 0 [ms]
[OGL LOG][Proc: 0]p_non_local_coeffs: call_update: 0 [ms]
[OGL LOG][Proc: 0]update_local_matrix_data: 829.405 [ms]
[OGL LOG][Proc: 0]update_non_local_matrix_data: 1.325 [ms]
[OGL LOG][Proc: 0]p_matrix: call_update: 124.311 [ms]
[OGL LOG][Proc: 0]p_rhs: call_update: 56.072 [ms]
[OGL LOG][Proc: 0]init_precond: 0.026 [ms]
[OGL LOG][StoppingCriterion.H:588] Creating stopping criterion with minIter 1800 frequency 10
[OGL LOG][Proc: 0]generate_solver: 0.001 [ms]
[OGL LOG][Proc: 0]solve: 11528.9 [ms]
[OGL LOG][Proc: 0]copy_x_back: 109.167 [ms]
[OGL LOG][lduLduBase.H:303] 
Statistics:
	Time per iteration: 3854 [mu s]
	Time per residual norm calculation: 198.000000 [mu s]
	Time per iteration and DOF: 0.060219 [ns]
	Retrieve results bandwith 1.172000 [GByte/s]
nonecudaGKOCG:  Solving for p, Initial residual = 0.180127, Final residual = 9.77268e-05, No Iterations 2991
linear solve p 12762268
time step continuity errors : sum local = 1.85663e-10, global = 1.74069e-23, cumulative = -3.11821e-23
ExecutionTime = 369.35 s  ClockTime = 371 s

Time = 0.00015

Courant Number mean: 0.00284935 max: 0.0928888
DILUPBiCGStab:  Solving for Ux, Initial residual = 0.0270451, Final residual = 3.35963e-05, No Iterations 5
DILUPBiCGStab:  Solving for Uy, Initial residual = 0.049493, Final residual = 1.56879e-05, No Iterations 5
DILUPBiCGStab:  Solving for Uz, Initial residual = 0.0765173, Final residual = 9.86292e-05, No Iterations 5
linear solve U 22025681
[OGL LOG][Proc: 0]global_index_init: 0.012 [ms]
[OGL LOG][Proc: 0]p_local_coeffs: call_update: 0 [ms]
[OGL LOG][Proc: 0]p_non_local_coeffs: call_update: 0 [ms]
[OGL LOG][Proc: 0]update_local_matrix_data: 834.865 [ms]
[OGL LOG][Proc: 0]update_non_local_matrix_data: 1.939 [ms]
[OGL LOG][Proc: 0]p_matrix: call_update: 124.279 [ms]
[OGL LOG][Proc: 0]p_rhs: call_update: 55.264 [ms]
[OGL LOG][Proc: 0]init_precond: 0.027 [ms]
[OGL LOG][StoppingCriterion.H:588] Creating stopping criterion with minIter 1794 frequency 10
[OGL LOG][Proc: 0]generate_solver: 0.001 [ms]
[OGL LOG][Proc: 0]solve: 7319.74 [ms]
[OGL LOG][Proc: 0]copy_x_back: 108.602 [ms]
[OGL LOG][lduLduBase.H:303] 
Statistics:
	Time per iteration: 3850 [mu s]
	Time per residual norm calculation: 183.000000 [mu s]
	Time per iteration and DOF: 0.060156 [ns]
	Retrieve results bandwith 1.178000 [GByte/s]
nonecudaGKOCG:  Solving for p, Initial residual = 0.127235, Final residual = 9.73944e-05, No Iterations 1901
linear solve p 8555463
time step continuity errors : sum local = 1.86444e-10, global = 3.28249e-23, cumulative = 1.64271e-24
[OGL LOG][Proc: 0]global_index_init: 0.01 [ms]
[OGL LOG][Proc: 0]p_local_coeffs: call_update: 0 [ms]
[OGL LOG][Proc: 0]p_non_local_coeffs: call_update: 0 [ms]
[OGL LOG][Proc: 0]update_local_matrix_data: 830.877 [ms]
[OGL LOG][Proc: 0]update_non_local_matrix_data: 1.966 [ms]
[OGL LOG][Proc: 0]p_matrix: call_update: 124.338 [ms]
[OGL LOG][Proc: 0]p_rhs: call_update: 55.718 [ms]
[OGL LOG][Proc: 0]init_precond: 0.028 [ms]
[OGL LOG][StoppingCriterion.H:588] Creating stopping criterion with minIter 1140 frequency 10
[OGL LOG][Proc: 0]generate_solver: 0.001 [ms]
[OGL LOG][Proc: 0]solve: 5280.9 [ms]
[OGL LOG][Proc: 0]copy_x_back: 113.632 [ms]
[OGL LOG][lduLduBase.H:303] 
Statistics:
	Time per iteration: 3851 [mu s]
	Time per residual norm calculation: 190.000000 [mu s]
	Time per iteration and DOF: 0.060172 [ns]
	Retrieve results bandwith 1.126000 [GByte/s]
nonecudaGKOCG:  Solving for p, Initial residual = 0.104806, Final residual = 9.99187e-05, No Iterations 1371
linear solve p 6505970
time step continuity errors : sum local = 1.86843e-10, global = -4.15271e-24, cumulative = -2.51e-24
ExecutionTime = 422.03 s  ClockTime = 423 s

Time = 0.000175

Courant Number mean: 0.00310981 max: 0.0935747
DILUPBiCGStab:  Solving for Ux, Initial residual = 0.0228843, Final residual = 2.37576e-05, No Iterations 5
DILUPBiCGStab:  Solving for Uy, Initial residual = 0.0407567, Final residual = 1.4231e-05, No Iterations 5
DILUPBiCGStab:  Solving for Uz, Initial residual = 0.06646, Final residual = 6.45729e-05, No Iterations 5
linear solve U 22015802
[OGL LOG][Proc: 0]global_index_init: 0.011 [ms]
[OGL LOG][Proc: 0]p_local_coeffs: call_update: 0 [ms]
[OGL LOG][Proc: 0]p_non_local_coeffs: call_update: 0 [ms]
[OGL LOG][Proc: 0]update_local_matrix_data: 832.243 [ms]
[OGL LOG][Proc: 0]update_non_local_matrix_data: 1.349 [ms]
[OGL LOG][Proc: 0]p_matrix: call_update: 124.241 [ms]
[OGL LOG][Proc: 0]p_rhs: call_update: 55.518 [ms]
[OGL LOG][Proc: 0]init_precond: 0.028 [ms]
[OGL LOG][StoppingCriterion.H:588] Creating stopping criterion with minIter 822 frequency 10
[OGL LOG][Proc: 0]generate_solver: 0.001 [ms]
[OGL LOG][Proc: 0]solve: 5098.13 [ms]
[OGL LOG][Proc: 0]copy_x_back: 108.911 [ms]
[OGL LOG][lduLduBase.H:303] 
Statistics:
	Time per iteration: 3859 [mu s]
	Time per residual norm calculation: 186.000000 [mu s]
	Time per iteration and DOF: 0.060297 [ns]
	Retrieve results bandwith 1.175000 [GByte/s]
nonecudaGKOCG:  Solving for p, Initial residual = 0.0871778, Final residual = 9.61334e-05, No Iterations 1321
linear solve p 6331541
time step continuity errors : sum local = 1.72542e-10, global = 1.3812e-23, cumulative = 1.1302e-23
[OGL LOG][Proc: 0]global_index_init: 0.009 [ms]
[OGL LOG][Proc: 0]p_local_coeffs: call_update: 0 [ms]
[OGL LOG][Proc: 0]p_non_local_coeffs: call_update: 0 [ms]
[OGL LOG][Proc: 0]update_local_matrix_data: 830.685 [ms]
[OGL LOG][Proc: 0]update_non_local_matrix_data: 1.937 [ms]
[OGL LOG][Proc: 0]p_matrix: call_update: 123.861 [ms]
[OGL LOG][Proc: 0]p_rhs: call_update: 56.438 [ms]
[OGL LOG][Proc: 0]init_precond: 0.029 [ms]
[OGL LOG][StoppingCriterion.H:588] Creating stopping criterion with minIter 792 frequency 10
[OGL LOG][Proc: 0]generate_solver: 0.001 [ms]
[OGL LOG][Proc: 0]solve: 5094.25 [ms]
[OGL LOG][Proc: 0]copy_x_back: 108.996 [ms]
[OGL LOG][lduLduBase.H:303] 
Statistics:
	Time per iteration: 3856 [mu s]
	Time per residual norm calculation: 196.000000 [mu s]
	Time per iteration and DOF: 0.060250 [ns]
	Retrieve results bandwith 1.174000 [GByte/s]
nonecudaGKOCG:  Solving for p, Initial residual = 0.0725996, Final residual = 9.32322e-05, No Iterations 1321
linear solve p 6312102
time step continuity errors : sum local = 1.67385e-10, global = 2.28076e-23, cumulative = 3.41095e-23
ExecutionTime = 472.3 s  ClockTime = 474 s

Time = 0.0002

Courant Number mean: 0.00334434 max: 0.094089
DILUPBiCGStab:  Solving for Ux, Initial residual = 0.0198901, Final residual = 1.84267e-05, No Iterations 5
DILUPBiCGStab:  Solving for Uy, Initial residual = 0.0346124, Final residual = 6.60075e-06, No Iterations 5
DILUPBiCGStab:  Solving for Uz, Initial residual = 0.0585864, Final residual = 4.49959e-05, No Iterations 5
linear solve U 22126531
[OGL LOG][Proc: 0]global_index_init: 0.01 [ms]
[OGL LOG][Proc: 0]p_local_coeffs: call_update: 0 [ms]
[OGL LOG][Proc: 0]p_non_local_coeffs: call_update: 0 [ms]
[OGL LOG][Proc: 0]update_local_matrix_data: 833.874 [ms]
[OGL LOG][Proc: 0]update_non_local_matrix_data: 1.233 [ms]
[OGL LOG][Proc: 0]p_matrix: call_update: 124.581 [ms]
[OGL LOG][Proc: 0]p_rhs: call_update: 55.068 [ms]
[OGL LOG][Proc: 0]init_precond: 0.025 [ms]
[OGL LOG][StoppingCriterion.H:588] Creating stopping criterion with minIter 792 frequency 10
[OGL LOG][Proc: 0]generate_solver: 0.001 [ms]
[OGL LOG][Proc: 0]solve: 5058.2 [ms]
[OGL LOG][Proc: 0]copy_x_back: 109.038 [ms]
[OGL LOG][lduLduBase.H:303] 
Statistics:
	Time per iteration: 3858 [mu s]
	Time per residual norm calculation: 188.000000 [mu s]
	Time per iteration and DOF: 0.060281 [ns]
	Retrieve results bandwith 1.173000 [GByte/s]
nonecudaGKOCG:  Solving for p, Initial residual = 0.0555769, Final residual = 9.85401e-05, No Iterations 1311
linear solve p 6294558
time step continuity errors : sum local = 1.81134e-10, global = -5.85725e-23, cumulative = -2.44629e-23
[OGL LOG][Proc: 0]global_index_init: 0.01 [ms]
[OGL LOG][Proc: 0]p_local_coeffs: call_update: 0 [ms]
[OGL LOG][Proc: 0]p_non_local_coeffs: call_update: 0 [ms]
[OGL LOG][Proc: 0]update_local_matrix_data: 830.667 [ms]
[OGL LOG][Proc: 0]update_non_local_matrix_data: 1.889 [ms]
[OGL LOG][Proc: 0]p_matrix: call_update: 123.993 [ms]
[OGL LOG][Proc: 0]p_rhs: call_update: 55.745 [ms]
[OGL LOG][Proc: 0]init_precond: 0.027 [ms]
[OGL LOG][StoppingCriterion.H:588] Creating stopping criterion with minIter 786 frequency 10
[OGL LOG][Proc: 0]generate_solver: 0.002 [ms]
[OGL LOG][Proc: 0]solve: 5017.88 [ms]
[OGL LOG][Proc: 0]copy_x_back: 109.149 [ms]
[OGL LOG][lduLduBase.H:303] 
Statistics:
	Time per iteration: 3856 [mu s]
	Time per residual norm calculation: 180.000000 [mu s]
	Time per iteration and DOF: 0.060250 [ns]
	Retrieve results bandwith 1.172000 [GByte/s]
nonecudaGKOCG:  Solving for p, Initial residual = 0.0473371, Final residual = 9.32905e-05, No Iterations 1301
linear solve p 6234916
time step continuity errors : sum local = 1.67656e-10, global = -9.52728e-23, cumulative = -1.19736e-22
ExecutionTime = 522.54 s  ClockTime = 524 s

Time = 0.000225

Courant Number mean: 0.00355866 max: 0.0944924
DILUPBiCGStab:  Solving for Ux, Initial residual = 0.0176087, Final residual = 1.41991e-05, No Iterations 5
DILUPBiCGStab:  Solving for Uy, Initial residual = 0.0300911, Final residual = 6.63379e-06, No Iterations 5
DILUPBiCGStab:  Solving for Uz, Initial residual = 0.0520056, Final residual = 3.34501e-05, No Iterations 5
linear solve U 22187025
[OGL LOG][Proc: 0]global_index_init: 0.01 [ms]
[OGL LOG][Proc: 0]p_local_coeffs: call_update: 0 [ms]
[OGL LOG][Proc: 0]p_non_local_coeffs: call_update: 0 [ms]
[OGL LOG][Proc: 0]update_local_matrix_data: 833.009 [ms]
[OGL LOG][Proc: 0]update_non_local_matrix_data: 1.867 [ms]
[OGL LOG][Proc: 0]p_matrix: call_update: 124.393 [ms]
[OGL LOG][Proc: 0]p_rhs: call_update: 55.301 [ms]
[OGL LOG][Proc: 0]init_precond: 0.028 [ms]
[OGL LOG][StoppingCriterion.H:588] Creating stopping criterion with minIter 780 frequency 10
[OGL LOG][Proc: 0]generate_solver: 0.001 [ms]
[OGL LOG][Proc: 0]solve: 4979.19 [ms]
[OGL LOG][Proc: 0]copy_x_back: 108.188 [ms]
[OGL LOG][lduLduBase.H:303] 
Statistics:
	Time per iteration: 3856 [mu s]
	Time per residual norm calculation: 184.000000 [mu s]
	Time per iteration and DOF: 0.060250 [ns]
	Retrieve results bandwith 1.183000 [GByte/s]
nonecudaGKOCG:  Solving for p, Initial residual = 0.0410797, Final residual = 9.44077e-05, No Iterations 1291
linear solve p 6197180
time step continuity errors : sum local = 1.67481e-10, global = 6.11758e-24, cumulative = -1.13618e-22
[OGL LOG][Proc: 0]global_index_init: 0.009 [ms]
[OGL LOG][Proc: 0]p_local_coeffs: call_update: 0 [ms]
[OGL LOG][Proc: 0]p_non_local_coeffs: call_update: 0 [ms]
[OGL LOG][Proc: 0]update_local_matrix_data: 829.533 [ms]
[OGL LOG][Proc: 0]update_non_local_matrix_data: 1.287 [ms]
[OGL LOG][Proc: 0]p_matrix: call_update: 124.321 [ms]
[OGL LOG][Proc: 0]p_rhs: call_update: 56.533 [ms]
[OGL LOG][Proc: 0]init_precond: 0.026 [ms]
[OGL LOG][StoppingCriterion.H:588] Creating stopping criterion with minIter 774 frequency 10
[OGL LOG][Proc: 0]generate_solver: 0.001 [ms]
[OGL LOG][Proc: 0]solve: 4940.46 [ms]
[OGL LOG][Proc: 0]copy_x_back: 108.917 [ms]
[OGL LOG][lduLduBase.H:303] 
Statistics:
	Time per iteration: 3856 [mu s]
	Time per residual norm calculation: 180.000000 [mu s]
	Time per iteration and DOF: 0.060250 [ns]
	Retrieve results bandwith 1.175000 [GByte/s]
nonecudaGKOCG:  Solving for p, Initial residual = 0.0352495, Final residual = 9.7432e-05, No Iterations 1281
linear solve p 6157237
time step continuity errors : sum local = 1.71159e-10, global = 6.26704e-23, cumulative = -5.09477e-23
ExecutionTime = 572.6 s  ClockTime = 574 s

Time = 0.00025

Courant Number mean: 0.00375674 max: 0.0948202
DILUPBiCGStab:  Solving for Ux, Initial residual = 0.0158193, Final residual = 1.15632e-05, No Iterations 5
DILUPBiCGStab:  Solving for Uy, Initial residual = 0.0265862, Final residual = 4.0551e-06, No Iterations 5
DILUPBiCGStab:  Solving for Uz, Initial residual = 0.0474135, Final residual = 2.5616e-05, No Iterations 5
linear solve U 22179059
[OGL LOG][Proc: 0]global_index_init: 0.01 [ms]
[OGL LOG][Proc: 0]p_local_coeffs: call_update: 0 [ms]
[OGL LOG][Proc: 0]p_non_local_coeffs: call_update: 0 [ms]
[OGL LOG][Proc: 0]update_local_matrix_data: 831.457 [ms]
[OGL LOG][Proc: 0]update_non_local_matrix_data: 1.942 [ms]
[OGL LOG][Proc: 0]p_matrix: call_update: 124.031 [ms]
[OGL LOG][Proc: 0]p_rhs: call_update: 55.054 [ms]
[OGL LOG][Proc: 0]init_precond: 0.027 [ms]
[OGL LOG][StoppingCriterion.H:588] Creating stopping criterion with minIter 768 frequency 10
[OGL LOG][Proc: 0]generate_solver: 0.001 [ms]
[OGL LOG][Proc: 0]solve: 5055.74 [ms]
[OGL LOG][Proc: 0]copy_x_back: 108.08 [ms]
[OGL LOG][lduLduBase.H:303] 
Statistics:
	Time per iteration: 3856 [mu s]
	Time per residual norm calculation: 188.000000 [mu s]
	Time per iteration and DOF: 0.060250 [ns]
	Retrieve results bandwith 1.184000 [GByte/s]
nonecudaGKOCG:  Solving for p, Initial residual = 0.0294395, Final residual = 9.9711e-05, No Iterations 1311
linear solve p 6272008
time step continuity errors : sum local = 1.82171e-10, global = -9.30423e-23, cumulative = -1.4399e-22
[OGL LOG][Proc: 0]global_index_init: 0.01 [ms]
[OGL LOG][Proc: 0]p_local_coeffs: call_update: 0 [ms]
[OGL LOG][Proc: 0]p_non_local_coeffs: call_update: 0 [ms]
[OGL LOG][Proc: 0]update_local_matrix_data: 830.504 [ms]
[OGL LOG][Proc: 0]update_non_local_matrix_data: 1.319 [ms]
[OGL LOG][Proc: 0]p_matrix: call_update: 125.143 [ms]
[OGL LOG][Proc: 0]p_rhs: call_update: 55.583 [ms]
[OGL LOG][Proc: 0]init_precond: 0.025 [ms]
[OGL LOG][StoppingCriterion.H:588] Creating stopping criterion with minIter 786 frequency 10
[OGL LOG][Proc: 0]generate_solver: 0.001 [ms]
[OGL LOG][Proc: 0]solve: 4940 [ms]
[OGL LOG][Proc: 0]copy_x_back: 109.335 [ms]
[OGL LOG][lduLduBase.H:303] 
Statistics:
	Time per iteration: 3856 [mu s]
	Time per residual norm calculation: 196.000000 [mu s]
	Time per iteration and DOF: 0.060250 [ns]
	Retrieve results bandwith 1.170000 [GByte/s]
nonecudaGKOCG:  Solving for p, Initial residual = 0.0259403, Final residual = 9.58588e-05, No Iterations 1281
linear solve p 6157657
time step continuity errors : sum local = 1.70734e-10, global = -9.2431e-24, cumulative = -1.53233e-22
ExecutionTime = 622.79 s  ClockTime = 625 s

Time = 0.000275

Courant Number mean: 0.00394124 max: 0.0950931
DILUPBiCGStab:  Solving for Ux, Initial residual = 0.0143638, Final residual = 9.4183e-06, No Iterations 5
DILUPBiCGStab:  Solving for Uy, Initial residual = 0.0238268, Final residual = 3.84382e-06, No Iterations 5
DILUPBiCGStab:  Solving for Uz, Initial residual = 0.043216, Final residual = 2.1946e-05, No Iterations 5
linear solve U 22121914
[OGL LOG][Proc: 0]global_index_init: 0.009 [ms]
[OGL LOG][Proc: 0]p_local_coeffs: call_update: 0 [ms]
[OGL LOG][Proc: 0]p_non_local_coeffs: call_update: 0 [ms]
[OGL LOG][Proc: 0]update_local_matrix_data: 831.962 [ms]
[OGL LOG][Proc: 0]update_non_local_matrix_data: 1.913 [ms]
[OGL LOG][Proc: 0]p_matrix: call_update: 124.326 [ms]
[OGL LOG][Proc: 0]p_rhs: call_update: 55.046 [ms]
[OGL LOG][Proc: 0]init_precond: 0.027 [ms]
[OGL LOG][StoppingCriterion.H:588] Creating stopping criterion with minIter 768 frequency 10
[OGL LOG][Proc: 0]generate_solver: 0.002 [ms]
[OGL LOG][Proc: 0]solve: 5287.88 [ms]
[OGL LOG][Proc: 0]copy_x_back: 109.767 [ms]
[OGL LOG][lduLduBase.H:303] 
Statistics:
	Time per iteration: 3856 [mu s]
	Time per residual norm calculation: 193.000000 [mu s]
	Time per iteration and DOF: 0.060250 [ns]
	Retrieve results bandwith 1.166000 [GByte/s]
nonecudaGKOCG:  Solving for p, Initial residual = 0.0235339, Final residual = 8.80578e-05, No Iterations 1371
linear solve p 6512127
time step continuity errors : sum local = 1.57261e-10, global = -6.31242e-24, cumulative = -1.59546e-22
[OGL LOG][Proc: 0]global_index_init: 0.011 [ms]
[OGL LOG][Proc: 0]p_local_coeffs: call_update: 0 [ms]
[OGL LOG][Proc: 0]p_non_local_coeffs: call_update: 0 [ms]
[OGL LOG][Proc: 0]update_local_matrix_data: 830.086 [ms]
[OGL LOG][Proc: 0]update_non_local_matrix_data: 1.303 [ms]
[OGL LOG][Proc: 0]p_matrix: call_update: 124.311 [ms]
[OGL LOG][Proc: 0]p_rhs: call_update: 55.764 [ms]
[OGL LOG][Proc: 0]init_precond: 0.025 [ms]
[OGL LOG][StoppingCriterion.H:588] Creating stopping criterion with minIter 822 frequency 10
[OGL LOG][Proc: 0]generate_solver: 0.001 [ms]
[OGL LOG][Proc: 0]solve: 5209.76 [ms]
[OGL LOG][Proc: 0]copy_x_back: 109.069 [ms]
[OGL LOG][lduLduBase.H:303] 
Statistics:
	Time per iteration: 3856 [mu s]
	Time per residual norm calculation: 180.000000 [mu s]
	Time per iteration and DOF: 0.060250 [ns]
	Retrieve results bandwith 1.173000 [GByte/s]
nonecudaGKOCG:  Solving for p, Initial residual = 0.0210677, Final residual = 9.75639e-05, No Iterations 1351
linear solve p 6426218
time step continuity errors : sum local = 1.70389e-10, global = -3.20062e-23, cumulative = -1.91552e-22
ExecutionTime = 673.42 s  ClockTime = 675 s

Time = 0.0003

Courant Number mean: 0.00411426 max: 0.095325
DILUPBiCGStab:  Solving for Ux, Initial residual = 0.0131668, Final residual = 7.83788e-06, No Iterations 5
DILUPBiCGStab:  Solving for Uy, Initial residual = 0.0215614, Final residual = 2.91777e-06, No Iterations 5
DILUPBiCGStab:  Solving for Uz, Initial residual = 0.0399908, Final residual = 1.83857e-05, No Iterations 5
linear solve U 22083361
[OGL LOG][Proc: 0]global_index_init: 0.01 [ms]
[OGL LOG][Proc: 0]p_local_coeffs: call_update: 0 [ms]
[OGL LOG][Proc: 0]p_non_local_coeffs: call_update: 0 [ms]
[OGL LOG][Proc: 0]update_local_matrix_data: 830.699 [ms]
[OGL LOG][Proc: 0]update_non_local_matrix_data: 1.872 [ms]
[OGL LOG][Proc: 0]p_matrix: call_update: 124.367 [ms]
[OGL LOG][Proc: 0]p_rhs: call_update: 55.266 [ms]
[OGL LOG][Proc: 0]init_precond: 0.028 [ms]
[OGL LOG][StoppingCriterion.H:588] Creating stopping criterion with minIter 810 frequency 10
[OGL LOG][Proc: 0]generate_solver: 0.001 [ms]
[OGL LOG][Proc: 0]solve: 5209.54 [ms]
[OGL LOG][Proc: 0]copy_x_back: 108.283 [ms]
[OGL LOG][lduLduBase.H:303] 
Statistics:
	Time per iteration: 3856 [mu s]
	Time per residual norm calculation: 188.000000 [mu s]
	Time per iteration and DOF: 0.060250 [ns]
	Retrieve results bandwith 1.182000 [GByte/s]
nonecudaGKOCG:  Solving for p, Initial residual = 0.0185696, Final residual = 9.88216e-05, No Iterations 1351
linear solve p 6425308
time step continuity errors : sum local = 1.81997e-10, global = 2.65732e-24, cumulative = -1.88894e-22
[OGL LOG][Proc: 0]global_index_init: 0.011 [ms]
[OGL LOG][Proc: 0]p_local_coeffs: call_update: 0 [ms]
[OGL LOG][Proc: 0]p_non_local_coeffs: call_update: 0 [ms]
[OGL LOG][Proc: 0]update_local_matrix_data: 829.304 [ms]
[OGL LOG][Proc: 0]update_non_local_matrix_data: 1.342 [ms]
[OGL LOG][Proc: 0]p_matrix: call_update: 124.475 [ms]
[OGL LOG][Proc: 0]p_rhs: call_update: 55.968 [ms]
[OGL LOG][Proc: 0]init_precond: 0.026 [ms]
[OGL LOG][StoppingCriterion.H:588] Creating stopping criterion with minIter 810 frequency 10
[OGL LOG][Proc: 0]generate_solver: 0.001 [ms]
[OGL LOG][Proc: 0]solve: 4748.29 [ms]
[OGL LOG][Proc: 0]copy_x_back: 110.044 [ms]
[OGL LOG][lduLduBase.H:303] 
Statistics:
	Time per iteration: 3857 [mu s]
	Time per residual norm calculation: 180.000000 [mu s]
	Time per iteration and DOF: 0.060266 [ns]
	Retrieve results bandwith 1.163000 [GByte/s]
nonecudaGKOCG:  Solving for p, Initial residual = 0.017074, Final residual = 9.70508e-05, No Iterations 1231
linear solve p 5981996
time step continuity errors : sum local = 1.73102e-10, global = 1.68961e-23, cumulative = -1.71998e-22
ExecutionTime = 723.53 s  ClockTime = 726 s

Time = 0.000325

Courant Number mean: 0.00427751 max: 0.0955252
DILUPBiCGStab:  Solving for Ux, Initial residual = 0.0121508, Final residual = 6.56297e-06, No Iterations 5
DILUPBiCGStab:  Solving for Uy, Initial residual = 0.0197034, Final residual = 2.67681e-06, No Iterations 5
DILUPBiCGStab:  Solving for Uz, Initial residual = 0.0368226, Final residual = 1.75793e-05, No Iterations 5
linear solve U 22081507
[OGL LOG][Proc: 0]global_index_init: 0.011 [ms]
[OGL LOG][Proc: 0]p_local_coeffs: call_update: 0 [ms]
[OGL LOG][Proc: 0]p_non_local_coeffs: call_update: 0 [ms]
[OGL LOG][Proc: 0]update_local_matrix_data: 833.598 [ms]
[OGL LOG][Proc: 0]update_non_local_matrix_data: 1.926 [ms]
[OGL LOG][Proc: 0]p_matrix: call_update: 124.321 [ms]
[OGL LOG][Proc: 0]p_rhs: call_update: 55.183 [ms]
[OGL LOG][Proc: 0]init_precond: 0.028 [ms]
[OGL LOG][StoppingCriterion.H:588] Creating stopping criterion with minIter 738 frequency 10
[OGL LOG][Proc: 0]generate_solver: 0.001 [ms]
[OGL LOG][Proc: 0]solve: 5250.02 [ms]
[OGL LOG][Proc: 0]copy_x_back: 108.237 [ms]
[OGL LOG][lduLduBase.H:303] 
Statistics:
	Time per iteration: 3857 [mu s]
	Time per residual norm calculation: 190.000000 [mu s]
	Time per iteration and DOF: 0.060266 [ns]
	Retrieve results bandwith 1.182000 [GByte/s]
nonecudaGKOCG:  Solving for p, Initial residual = 0.0162109, Final residual = 9.02758e-05, No Iterations 1361
linear solve p 6468084
time step continuity errors : sum local = 1.63246e-10, global = -7.07097e-23, cumulative = -2.42708e-22
[OGL LOG][Proc: 0]global_index_init: 0.01 [ms]
[OGL LOG][Proc: 0]p_local_coeffs: call_update: 0 [ms]
[OGL LOG][Proc: 0]p_non_local_coeffs: call_update: 0 [ms]
[OGL LOG][Proc: 0]update_local_matrix_data: 830.146 [ms]
[OGL LOG][Proc: 0]update_non_local_matrix_data: 1.204 [ms]
[OGL LOG][Proc: 0]p_matrix: call_update: 124.38 [ms]
[OGL LOG][Proc: 0]p_rhs: call_update: 55.735 [ms]
[OGL LOG][Proc: 0]init_precond: 0.025 [ms]
[OGL LOG][StoppingCriterion.H:588] Creating stopping criterion with minIter 816 frequency 10
[OGL LOG][Proc: 0]generate_solver: 0.001 [ms]
[OGL LOG][Proc: 0]solve: 5135.51 [ms]
[OGL LOG][Proc: 0]copy_x_back: 109.181 [ms]
[OGL LOG][lduLduBase.H:303] 
Statistics:
	Time per iteration: 3858 [mu s]
	Time per residual norm calculation: 186.000000 [mu s]
	Time per iteration and DOF: 0.060281 [ns]
	Retrieve results bandwith 1.172000 [GByte/s]
nonecudaGKOCG:  Solving for p, Initial residual = 0.0149949, Final residual = 9.74615e-05, No Iterations 1331
linear solve p 6366581
time step continuity errors : sum local = 1.70529e-10, global = 4.20312e-23, cumulative = -2.00677e-22
ExecutionTime = 774.03 s  ClockTime = 776 s

Time = 0.00035

Courant Number mean: 0.00443218 max: 0.0957004
DILUPBiCGStab:  Solving for Ux, Initial residual = 0.0112909, Final residual = 5.56612e-06, No Iterations 5
DILUPBiCGStab:  Solving for Uy, Initial residual = 0.0181175, Final residual = 2.26552e-06, No Iterations 5
DILUPBiCGStab:  Solving for Uz, Initial residual = 0.034518, Final residual = 1.64627e-05, No Iterations 5
linear solve U 22082153
[OGL LOG][Proc: 0]global_index_init: 0.01 [ms]
[OGL LOG][Proc: 0]p_local_coeffs: call_update: 0 [ms]
[OGL LOG][Proc: 0]p_non_local_coeffs: call_update: 0 [ms]
[OGL LOG][Proc: 0]update_local_matrix_data: 832.523 [ms]
[OGL LOG][Proc: 0]update_non_local_matrix_data: 1.947 [ms]
[OGL LOG][Proc: 0]p_matrix: call_update: 123.987 [ms]
[OGL LOG][Proc: 0]p_rhs: call_update: 55.276 [ms]
[OGL LOG][Proc: 0]init_precond: 0.03 [ms]
[OGL LOG][StoppingCriterion.H:588] Creating stopping criterion with minIter 798 frequency 10
[OGL LOG][Proc: 0]generate_solver: 0.002 [ms]
[OGL LOG][Proc: 0]solve: 5287.39 [ms]
[OGL LOG][Proc: 0]copy_x_back: 108.659 [ms]
[OGL LOG][lduLduBase.H:303] 
Statistics:
	Time per iteration: 3856 [mu s]
	Time per residual norm calculation: 198.000000 [mu s]
	Time per iteration and DOF: 0.060250 [ns]
	Retrieve results bandwith 1.177000 [GByte/s]
nonecudaGKOCG:  Solving for p, Initial residual = 0.013906, Final residual = 9.17067e-05, No Iterations 1371
linear solve p 6504555
time step continuity errors : sum local = 1.72132e-10, global = -9.00935e-23, cumulative = -2.9077e-22
[OGL LOG][Proc: 0]global_index_init: 0.009 [ms]
[OGL LOG][Proc: 0]p_local_coeffs: call_update: 0 [ms]
[OGL LOG][Proc: 0]p_non_local_coeffs: call_update: 0 [ms]
[OGL LOG][Proc: 0]update_local_matrix_data: 830.343 [ms]
[OGL LOG][Proc: 0]update_non_local_matrix_data: 1.257 [ms]
[OGL LOG][Proc: 0]p_matrix: call_update: 124.628 [ms]
[OGL LOG][Proc: 0]p_rhs: call_update: 55.571 [ms]
[OGL LOG][Proc: 0]init_precond: 0.025 [ms]
[OGL LOG][StoppingCriterion.H:588] Creating stopping criterion with minIter 822 frequency 10
[OGL LOG][Proc: 0]generate_solver: 0.002 [ms]
[OGL LOG][Proc: 0]solve: 4714.2 [ms]
[OGL LOG][Proc: 0]copy_x_back: 108.861 [ms]
[OGL LOG][lduLduBase.H:303] 
Statistics:
	Time per iteration: 3860 [mu s]
	Time per residual norm calculation: 184.000000 [mu s]
	Time per iteration and DOF: 0.060312 [ns]
	Retrieve results bandwith 1.175000 [GByte/s]
nonecudaGKOCG:  Solving for p, Initial residual = 0.0130348, Final residual = 9.67973e-05, No Iterations 1221
linear solve p 5946943
time step continuity errors : sum local = 1.73517e-10, global = -7.51642e-23, cumulative = -3.65935e-22
ExecutionTime = 824.17 s  ClockTime = 827 s

Time = 0.000375

Courant Number mean: 0.00457926 max: 0.0958553
DILUPBiCGStab:  Solving for Ux, Initial residual = 0.010538, Final residual = 4.76292e-06, No Iterations 5
DILUPBiCGStab:  Solving for Uy, Initial residual = 0.0167837, Final residual = 2.05966e-06, No Iterations 5
DILUPBiCGStab:  Solving for Uz, Initial residual = 0.0321885, Final residual = 1.65434e-05, No Iterations 5
linear solve U 22054712
[OGL LOG][Proc: 0]global_index_init: 0.01 [ms]
[OGL LOG][Proc: 0]p_local_coeffs: call_update: 0 [ms]
[OGL LOG][Proc: 0]p_non_local_coeffs: call_update: 0 [ms]
[OGL LOG][Proc: 0]update_local_matrix_data: 832.972 [ms]
[OGL LOG][Proc: 0]update_non_local_matrix_data: 1.845 [ms]
[OGL LOG][Proc: 0]p_matrix: call_update: 124.034 [ms]
[OGL LOG][Proc: 0]p_rhs: call_update: 55.883 [ms]
[OGL LOG][Proc: 0]init_precond: 0.028 [ms]
[OGL LOG][StoppingCriterion.H:588] Creating stopping criterion with minIter 732 frequency 10
[OGL LOG][Proc: 0]generate_solver: 0.001 [ms]
[OGL LOG][Proc: 0]solve: 5213.11 [ms]
[OGL LOG][Proc: 0]copy_x_back: 108.621 [ms]
[OGL LOG][lduLduBase.H:303] 
Statistics:
	Time per iteration: 3858 [mu s]
	Time per residual norm calculation: 188.000000 [mu s]
	Time per iteration and DOF: 0.060281 [ns]
	Retrieve results bandwith 1.178000 [GByte/s]
nonecudaGKOCG:  Solving for p, Initial residual = 0.0124594, Final residual = 9.31739e-05, No Iterations 1351
linear solve p 6431352
time step continuity errors : sum local = 1.71372e-10, global = 3.65846e-23, cumulative = -3.2935e-22
[OGL LOG][Proc: 0]global_index_init: 0.012 [ms]
[OGL LOG][Proc: 0]p_local_coeffs: call_update: 0 [ms]
[OGL LOG][Proc: 0]p_non_local_coeffs: call_update: 0 [ms]
[OGL LOG][Proc: 0]update_local_matrix_data: 830.776 [ms]
[OGL LOG][Proc: 0]update_non_local_matrix_data: 1.299 [ms]
[OGL LOG][Proc: 0]p_matrix: call_update: 124.415 [ms]
[OGL LOG][Proc: 0]p_rhs: call_update: 55.95 [ms]
[OGL LOG][Proc: 0]init_precond: 0.028 [ms]
[OGL LOG][StoppingCriterion.H:588] Creating stopping criterion with minIter 810 frequency 10
[OGL LOG][Proc: 0]generate_solver: 0.001 [ms]
[OGL LOG][Proc: 0]solve: 5056.53 [ms]
[OGL LOG][Proc: 0]copy_x_back: 108.542 [ms]
[OGL LOG][lduLduBase.H:303] 
Statistics:
	Time per iteration: 3857 [mu s]
	Time per residual norm calculation: 183.000000 [mu s]
	Time per iteration and DOF: 0.060266 [ns]
	Retrieve results bandwith 1.179000 [GByte/s]
nonecudaGKOCG:  Solving for p, Initial residual = 0.0117131, Final residual = 9.53666e-05, No Iterations 1311
linear solve p 6289085
time step continuity errors : sum local = 1.67701e-10, global = 5.75366e-23, cumulative = -2.71813e-22
ExecutionTime = 874.58 s  ClockTime = 877 s

Time = 0.0004

Courant Number mean: 0.00471974 max: 0.0959935
DILUPBiCGStab:  Solving for Ux, Initial residual = 0.00988967, Final residual = 4.11809e-06, No Iterations 5
DILUPBiCGStab:  Solving for Uy, Initial residual = 0.0156091, Final residual = 1.82345e-06, No Iterations 5
DILUPBiCGStab:  Solving for Uz, Initial residual = 0.0304557, Final residual = 1.65646e-05, No Iterations 5
linear solve U 22044161
[OGL LOG][Proc: 0]global_index_init: 0.01 [ms]
[OGL LOG][Proc: 0]p_local_coeffs: call_update: 0 [ms]
[OGL LOG][Proc: 0]p_non_local_coeffs: call_update: 0 [ms]
[OGL LOG][Proc: 0]update_local_matrix_data: 831.818 [ms]
[OGL LOG][Proc: 0]update_non_local_matrix_data: 1.939 [ms]
[OGL LOG][Proc: 0]p_matrix: call_update: 124.405 [ms]
[OGL LOG][Proc: 0]p_rhs: call_update: 55.29 [ms]
[OGL LOG][Proc: 0]init_precond: 0.029 [ms]
[OGL LOG][StoppingCriterion.H:588] Creating stopping criterion with minIter 786 frequency 10
[OGL LOG][Proc: 0]generate_solver: 0.001 [ms]
[OGL LOG][Proc: 0]solve: 5330.56 [ms]
[OGL LOG][Proc: 0]copy_x_back: 108.618 [ms]
[OGL LOG][lduLduBase.H:303] 
Statistics:
	Time per iteration: 3859 [mu s]
	Time per residual norm calculation: 187.000000 [mu s]
	Time per iteration and DOF: 0.060297 [ns]
	Retrieve results bandwith 1.178000 [GByte/s]
nonecudaGKOCG:  Solving for p, Initial residual = 0.0112891, Final residual = 9.01646e-05, No Iterations 1381
linear solve p 6547460
time step continuity errors : sum local = 1.72998e-10, global = -2.46073e-23, cumulative = -2.96421e-22
[OGL LOG][Proc: 0]global_index_init: 0.012 [ms]
[OGL LOG][Proc: 0]p_local_coeffs: call_update: 0 [ms]
[OGL LOG][Proc: 0]p_non_local_coeffs: call_update: 0 [ms]
[OGL LOG][Proc: 0]update_local_matrix_data: 831.201 [ms]
[OGL LOG][Proc: 0]update_non_local_matrix_data: 1.333 [ms]
[OGL LOG][Proc: 0]p_matrix: call_update: 125.054 [ms]
[OGL LOG][Proc: 0]p_rhs: call_update: 55.713 [ms]
[OGL LOG][Proc: 0]init_precond: 0.026 [ms]
[OGL LOG][StoppingCriterion.H:588] Creating stopping criterion with minIter 828 frequency 10
[OGL LOG][Proc: 0]generate_solver: 0.001 [ms]
[OGL LOG][Proc: 0]solve: 4942.93 [ms]
[OGL LOG][Proc: 0]copy_x_back: 108.781 [ms]
[OGL LOG][lduLduBase.H:303] 
Statistics:
	Time per iteration: 3858 [mu s]
	Time per residual norm calculation: 187.000000 [mu s]
	Time per iteration and DOF: 0.060281 [ns]
	Retrieve results bandwith 1.176000 [GByte/s]
nonecudaGKOCG:  Solving for p, Initial residual = 0.0106661, Final residual = 9.70291e-05, No Iterations 1281
linear solve p 6178615
time step continuity errors : sum local = 1.75132e-10, global = 4.41566e-23, cumulative = -2.52264e-22
ExecutionTime = 925.04 s  ClockTime = 928 s

Time = 0.000425

Courant Number mean: 0.00485411 max: 0.0961179
DILUPBiCGStab:  Solving for Ux, Initial residual = 0.0093068, Final residual = 3.59471e-06, No Iterations 5
DILUPBiCGStab:  Solving for Uy, Initial residual = 0.0146087, Final residual = 1.65334e-06, No Iterations 5
DILUPBiCGStab:  Solving for Uz, Initial residual = 0.0287024, Final residual = 1.64249e-05, No Iterations 5
linear solve U 22032986
[OGL LOG][Proc: 0]global_index_init: 0.009 [ms]
[OGL LOG][Proc: 0]p_local_coeffs: call_update: 0 [ms]
[OGL LOG][Proc: 0]p_non_local_coeffs: call_update: 0 [ms]
[OGL LOG][Proc: 0]update_local_matrix_data: 831.771 [ms]
[OGL LOG][Proc: 0]update_non_local_matrix_data: 1.951 [ms]
[OGL LOG][Proc: 0]p_matrix: call_update: 124.149 [ms]
[OGL LOG][Proc: 0]p_rhs: call_update: 55.52 [ms]
[OGL LOG][Proc: 0]init_precond: 0.027 [ms]
[OGL LOG][StoppingCriterion.H:588] Creating stopping criterion with minIter 768 frequency 10
[OGL LOG][Proc: 0]generate_solver: 0.001 [ms]
[OGL LOG][Proc: 0]solve: 5212.11 [ms]
[OGL LOG][Proc: 0]copy_x_back: 108.284 [ms]
[OGL LOG][lduLduBase.H:303] 
Statistics:
	Time per iteration: 3857 [mu s]
	Time per residual norm calculation: 184.000000 [mu s]
	Time per iteration and DOF: 0.060266 [ns]
	Retrieve results bandwith 1.182000 [GByte/s]
nonecudaGKOCG:  Solving for p, Initial residual = 0.0103485, Final residual = 9.8461e-05, No Iterations 1351
linear solve p 6445148
time step continuity errors : sum local = 1.84714e-10, global = -1.38783e-22, cumulative = -3.91047e-22
[OGL LOG][Proc: 0]global_index_init: 0.01 [ms]
[OGL LOG][Proc: 0]p_local_coeffs: call_update: 0 [ms]
[OGL LOG][Proc: 0]p_non_local_coeffs: call_update: 0 [ms]
[OGL LOG][Proc: 0]update_local_matrix_data: 828.829 [ms]
[OGL LOG][Proc: 0]update_non_local_matrix_data: 1.622 [ms]
[OGL LOG][Proc: 0]p_matrix: call_update: 124.47 [ms]
[OGL LOG][Proc: 0]p_rhs: call_update: 55.789 [ms]
[OGL LOG][Proc: 0]init_precond: 0.024 [ms]
[OGL LOG][StoppingCriterion.H:588] Creating stopping criterion with minIter 810 frequency 10
[OGL LOG][Proc: 0]generate_solver: 0.001 [ms]
[OGL LOG][Proc: 0]solve: 4942.05 [ms]
[OGL LOG][Proc: 0]copy_x_back: 108.758 [ms]
[OGL LOG][lduLduBase.H:303] 
Statistics:
	Time per iteration: 3857 [mu s]
	Time per residual norm calculation: 187.000000 [mu s]
	Time per iteration and DOF: 0.060266 [ns]
	Retrieve results bandwith 1.176000 [GByte/s]
nonecudaGKOCG:  Solving for p, Initial residual = 0.00979497, Final residual = 9.71311e-05, No Iterations 1281
linear solve p 6174236
time step continuity errors : sum local = 1.71986e-10, global = -3.2102e-23, cumulative = -4.23149e-22
ExecutionTime = 975.34 s  ClockTime = 978 s

Time = 0.00045

Courant Number mean: 0.00498313 max: 0.0962305
DILUPBiCGStab:  Solving for Ux, Initial residual = 0.00880081, Final residual = 3.16885e-06, No Iterations 5
DILUPBiCGStab:  Solving for Uy, Initial residual = 0.0137004, Final residual = 1.48756e-06, No Iterations 5
DILUPBiCGStab:  Solving for Uz, Initial residual = 0.027362, Final residual = 1.68378e-05, No Iterations 5
linear solve U 22076264
[OGL LOG][Proc: 0]global_index_init: 0.013 [ms]
[OGL LOG][Proc: 0]p_local_coeffs: call_update: 0 [ms]
[OGL LOG][Proc: 0]p_non_local_coeffs: call_update: 0 [ms]
[OGL LOG][Proc: 0]update_local_matrix_data: 834.498 [ms]
[OGL LOG][Proc: 0]update_non_local_matrix_data: 1.624 [ms]
[OGL LOG][Proc: 0]p_matrix: call_update: 124.363 [ms]
[OGL LOG][Proc: 0]p_rhs: call_update: 55.31 [ms]
[OGL LOG][Proc: 0]init_precond: 0.035 [ms]
[OGL LOG][StoppingCriterion.H:588] Creating stopping criterion with minIter 768 frequency 10
[OGL LOG][Proc: 0]generate_solver: 0.001 [ms]
[OGL LOG][Proc: 0]solve: 11193.1 [ms]
[OGL LOG][Proc: 0]copy_x_back: 108.633 [ms]
[OGL LOG][lduLduBase.H:303] 
Statistics:
	Time per iteration: 3858 [mu s]
	Time per residual norm calculation: 183.000000 [mu s]
	Time per iteration and DOF: 0.060281 [ns]
	Retrieve results bandwith 1.178000 [GByte/s]
nonecudaGKOCG:  Solving for p, Initial residual = 0.00958256, Final residual = 8.68578e-05, No Iterations 2901
linear solve p 12429537
time step continuity errors : sum local = 1.51577e-10, global = -6.06926e-23, cumulative = -4.83842e-22
[OGL LOG][Proc: 0]global_index_init: 0.009 [ms]
[OGL LOG][Proc: 0]p_local_coeffs: call_update: 0 [ms]
[OGL LOG][Proc: 0]p_non_local_coeffs: call_update: 0 [ms]
[OGL LOG][Proc: 0]update_local_matrix_data: 830.74 [ms]
[OGL LOG][Proc: 0]update_non_local_matrix_data: 1.964 [ms]
[OGL LOG][Proc: 0]p_matrix: call_update: 124.282 [ms]
[OGL LOG][Proc: 0]p_rhs: call_update: 56.086 [ms]
[OGL LOG][Proc: 0]init_precond: 0.028 [ms]
[OGL LOG][StoppingCriterion.H:588] Creating stopping criterion with minIter 1740 frequency 10
[OGL LOG][Proc: 0]generate_solver: 0.001 [ms]
[OGL LOG][Proc: 0]solve: 11133.8 [ms]
[OGL LOG][Proc: 0]copy_x_back: 108.463 [ms]
[OGL LOG][lduLduBase.H:303] 
Statistics:
	Time per iteration: 3851 [mu s]
	Time per residual norm calculation: 186.000000 [mu s]
	Time per iteration and DOF: 0.060172 [ns]
	Retrieve results bandwith 1.180000 [GByte/s]
nonecudaGKOCG:  Solving for p, Initial residual = 0.00908813, Final residual = 9.2368e-05, No Iterations 2891
linear solve p 12351783
time step continuity errors : sum local = 1.61248e-10, global = 1.16231e-23, cumulative = -4.72218e-22
ExecutionTime = 1037.85 s  ClockTime = 1041 s

Time = 0.000475

Courant Number mean: 0.00510714 max: 0.0963332
DILUPBiCGStab:  Solving for Ux, Initial residual = 0.00833766, Final residual = 2.81226e-06, No Iterations 5
DILUPBiCGStab:  Solving for Uy, Initial residual = 0.0129142, Final residual = 1.36495e-06, No Iterations 5
DILUPBiCGStab:  Solving for Uz, Initial residual = 0.0246981, Final residual = 1.01774e-05, No Iterations 5
linear solve U 22158833
[OGL LOG][Proc: 0]global_index_init: 0.009 [ms]
[OGL LOG][Proc: 0]p_local_coeffs: call_update: 0 [ms]
[OGL LOG][Proc: 0]p_non_local_coeffs: call_update: 0 [ms]
[OGL LOG][Proc: 0]update_local_matrix_data: 832.147 [ms]
[OGL LOG][Proc: 0]update_non_local_matrix_data: 1.893 [ms]
[OGL LOG][Proc: 0]p_matrix: call_update: 124.233 [ms]
[OGL LOG][Proc: 0]p_rhs: call_update: 55.143 [ms]
[OGL LOG][Proc: 0]init_precond: 0.033 [ms]
[OGL LOG][StoppingCriterion.H:588] Creating stopping criterion with minIter 1734 frequency 10
[OGL LOG][Proc: 0]generate_solver: 0.002 [ms]
[OGL LOG][Proc: 0]solve: 11018.8 [ms]
[OGL LOG][Proc: 0]copy_x_back: 108.701 [ms]
[OGL LOG][lduLduBase.H:303] 
Statistics:
	Time per iteration: 3851 [mu s]
	Time per residual norm calculation: 187.000000 [mu s]
	Time per iteration and DOF: 0.060172 [ns]
	Retrieve results bandwith 1.177000 [GByte/s]
nonecudaGKOCG:  Solving for p, Initial residual = 0.00889402, Final residual = 8.07336e-05, No Iterations 2861
linear solve p 12237537
time step continuity errors : sum local = 1.40933e-10, global = -1.16866e-22, cumulative = -5.89085e-22
[OGL LOG][Proc: 0]global_index_init: 0.009 [ms]
[OGL LOG][Proc: 0]p_local_coeffs: call_update: 0 [ms]
[OGL LOG][Proc: 0]p_non_local_coeffs: call_update: 0 [ms]
[OGL LOG][Proc: 0]update_local_matrix_data: 829.527 [ms]
[OGL LOG][Proc: 0]update_non_local_matrix_data: 1.228 [ms]
[OGL LOG][Proc: 0]p_matrix: call_update: 124.588 [ms]
[OGL LOG][Proc: 0]p_rhs: call_update: 55.755 [ms]
[OGL LOG][Proc: 0]init_precond: 0.026 [ms]
[OGL LOG][StoppingCriterion.H:588] Creating stopping criterion with minIter 1716 frequency 10
[OGL LOG][Proc: 0]generate_solver: 0.001 [ms]
[OGL LOG][Proc: 0]solve: 10981.9 [ms]
[OGL LOG][Proc: 0]copy_x_back: 108.921 [ms]
[OGL LOG][lduLduBase.H:303] 
Statistics:
	Time per iteration: 3851 [mu s]
	Time per residual norm calculation: 182.000000 [mu s]
	Time per iteration and DOF: 0.060172 [ns]
	Retrieve results bandwith 1.175000 [GByte/s]
nonecudaGKOCG:  Solving for p, Initial residual = 0.00844706, Final residual = 8.97919e-05, No Iterations 2851
linear solve p 12214553
time step continuity errors : sum local = 1.56786e-10, global = 2.0826e-23, cumulative = -5.68259e-22
ExecutionTime = 1100.07 s  ClockTime = 1103 s

Time = 0.0005

Courant Number mean: 0.00522673 max: 0.0964273
DILUPBiCGStab:  Solving for Ux, Initial residual = 0.007924, Final residual = 2.51651e-06, No Iterations 5
DILUPBiCGStab:  Solving for Uy, Initial residual = 0.0122055, Final residual = 1.29548e-06, No Iterations 5
DILUPBiCGStab:  Solving for Uz, Initial residual = 0.0232728, Final residual = 5.19198e-06, No Iterations 5
linear solve U 22049500
[OGL LOG][Proc: 0]global_index_init: 0.011 [ms]
[OGL LOG][Proc: 0]p_local_coeffs: call_update: 0 [ms]
[OGL LOG][Proc: 0]p_non_local_coeffs: call_update: 0 [ms]
[OGL LOG][Proc: 0]update_local_matrix_data: 831.29 [ms]
[OGL LOG][Proc: 0]update_non_local_matrix_data: 1.929 [ms]
[OGL LOG][Proc: 0]p_matrix: call_update: 124.237 [ms]
[OGL LOG][Proc: 0]p_rhs: call_update: 55.344 [ms]
[OGL LOG][Proc: 0]init_precond: 0.028 [ms]
[OGL LOG][StoppingCriterion.H:588] Creating stopping criterion with minIter 1710 frequency 10
[OGL LOG][Proc: 0]generate_solver: 0.002 [ms]
[OGL LOG][Proc: 0]solve: 6584.44 [ms]
[OGL LOG][Proc: 0]copy_x_back: 108.645 [ms]
[OGL LOG][lduLduBase.H:303] 
Statistics:
	Time per iteration: 3848 [mu s]
	Time per residual norm calculation: 300.000000 [mu s]
	Time per iteration and DOF: 0.060125 [ns]
	Retrieve results bandwith 1.178000 [GByte/s]
nonecudaGKOCG:  Solving for p, Initial residual = 0.00818896, Final residual = 5.06212e-05, No Iterations 1711
linear solve p 7817199
time step continuity errors : sum local = 9.09255e-11, global = -1.49258e-23, cumulative = -5.83185e-22
[OGL LOG][Proc: 0]global_index_init: 0.01 [ms]
[OGL LOG][Proc: 0]p_local_coeffs: call_update: 0 [ms]
[OGL LOG][Proc: 0]p_non_local_coeffs: call_update: 0 [ms]
[OGL LOG][Proc: 0]update_local_matrix_data: 833.43 [ms]
[OGL LOG][Proc: 0]update_non_local_matrix_data: 1.554 [ms]
[OGL LOG][Proc: 0]p_matrix: call_update: 124.168 [ms]
[OGL LOG][Proc: 0]p_rhs: call_update: 55.787 [ms]
[OGL LOG][Proc: 0]init_precond: 0.027 [ms]
[OGL LOG][StoppingCriterion.H:588] Creating stopping criterion with minIter 1026 frequency 10
[OGL LOG][Proc: 0]generate_solver: 0.002 [ms]
[OGL LOG][Proc: 0]solve: 4435.32 [ms]
[OGL LOG][Proc: 0]copy_x_back: 111.354 [ms]
[OGL LOG][lduLduBase.H:303] 
Statistics:
	Time per iteration: 3853 [mu s]
	Time per residual norm calculation: 181.000000 [mu s]
	Time per iteration and DOF: 0.060203 [ns]
	Retrieve results bandwith 1.149000 [GByte/s]
nonecudaGKOCG:  Solving for p, Initial residual = 0.00778857, Final residual = 8.70351e-05, No Iterations 1151
linear solve p 5669875
time step continuity errors : sum local = 1.52932e-10, global = -2.35086e-23, cumulative = -6.06693e-22
ExecutionTime = 1151.27 s  ClockTime = 1154 s

End

Finalising parallel run
================================================================================
hash: ef9222328d43f4b0989a5b4435aa30b5
/*---------------------------------------------------------------------------*\
| =========                 |                                                 |
| \\      /  F ield         | OpenFOAM: The Open Source CFD Toolbox           |
|  \\    /   O peration     | Version:  2112                                  |
|   \\  /    A nd           | Website:  www.openfoam.com                      |
|    \\/     M anipulation  |                                                 |
\*---------------------------------------------------------------------------*/
Build  : d44c8318f0-20220111 OPENFOAM=2112 version=v2112
Arch   : "LSB;label=32;scalar=64"
Exec   : icoFoam -parallel
Date   : Oct 06 2022
Time   : 12:08:08
Host   : hkn0611.localdomain
PID    : 620372
I/O    : uncollated
Case   : /hkfs/work/workspace/scratch/eq4036-lidDrivenCavity/single_node/mesh/300/matrix_solver/CG_NoPrecond_PETSC_CUDA/mpiRank_of/4/base
nProcs : 4
Hosts  :
(
    (hkn0611.localdomain 4)
)
Pstream initialized with:
    floatTransfer      : 0
    nProcsSimpleSum    : 0
    commsType          : nonBlocking
    polling iterations : 0
trapFpe: Floating point exception trapping enabled (FOAM_SIGFPE).
fileModificationChecking : Monitoring run-time modified files using timeStampMaster (fileModificationSkew 5, maxFileModificationPolls 20)
allowSystemOperations : Allowing user-supplied system call operations

// * * * * * * * * * * * * * * * * * * * * * * * * * * * * * * * * * * * * * //
Create time

Create mesh for time = 0


PISO: Operating solver in PISO mode

Reading transportProperties

Reading field p

Reading field U

Reading/calculating face flux field phi


Starting time loop

Time = 3.33333e-05

Courant Number mean: 0 max: 0
DILUPBiCGStab:  Solving for Ux, Initial residual = 1, Final residual = 0.000459077, No Iterations 5
DILUPBiCGStab:  Solving for Uy:  solution singularity
DILUPBiCGStab:  Solving for Uz:  solution singularity
linear solve U 4716550
Initializing PETSc
PETSc-cg:  Solving for p, Initial residual = 1, Final residual = 9.95582e-05, No Iterations 2434
linear solve p 7791946
time step continuity errors : sum local = 3.65829e-10, global = 2.65428e-22, cumulative = 2.65428e-22
PETSc-cg:  Solving for p, Initial residual = 0.688738, Final residual = 9.97636e-05, No Iterations 2411
linear solve p 4483789
time step continuity errors : sum local = 5.08095e-10, global = 7.96203e-23, cumulative = 3.45048e-22
ExecutionTime = 46.94 s  ClockTime = 48 s

Time = 6.66667e-05

Courant Number mean: 0.00132244 max: 0.0715438
DILUPBiCGStab:  Solving for Ux, Initial residual = 0.17237, Final residual = 0.000261608, No Iterations 5
DILUPBiCGStab:  Solving for Uy, Initial residual = 0.340772, Final residual = 0.000163002, No Iterations 5
DILUPBiCGStab:  Solving for Uz, Initial residual = 0.995959, Final residual = 0.000787053, No Iterations 5
linear solve U 12688363
PETSc-cg:  Solving for p, Initial residual = 0.592303, Final residual = 9.96071e-05, No Iterations 2358
linear solve p 4387045
time step continuity errors : sum local = 5.16055e-10, global = -1.72924e-22, cumulative = 1.72124e-22
PETSc-cg:  Solving for p, Initial residual = 0.512883, Final residual = 9.98358e-05, No Iterations 2353
linear solve p 4372614
time step continuity errors : sum local = 5.29269e-10, global = -1.0878e-23, cumulative = 1.61246e-22
ExecutionTime = 75.26 s  ClockTime = 76 s

Time = 0.0001

Courant Number mean: 0.00202536 max: 0.0848305
DILUPBiCGStab:  Solving for Ux, Initial residual = 0.0716932, Final residual = 7.77667e-05, No Iterations 5
DILUPBiCGStab:  Solving for Uy, Initial residual = 0.137125, Final residual = 4.17337e-05, No Iterations 5
DILUPBiCGStab:  Solving for Uz, Initial residual = 0.198074, Final residual = 0.000190066, No Iterations 5
linear solve U 12657018
PETSc-cg:  Solving for p, Initial residual = 0.420944, Final residual = 9.99872e-05, No Iterations 2304
linear solve p 4287277
time step continuity errors : sum local = 3.75789e-10, global = 4.10913e-23, cumulative = 2.02338e-22
PETSc-cg:  Solving for p, Initial residual = 0.365661, Final residual = 9.99426e-05, No Iterations 2295
linear solve p 4269349
time step continuity errors : sum local = 3.68429e-10, global = -4.64789e-23, cumulative = 1.55859e-22
ExecutionTime = 103.37 s  ClockTime = 104 s

Time = 0.000133333

Courant Number mean: 0.00251227 max: 0.0887236
[...]
|  \\    /   O peration     | Version:  2112                                  |
|   \\  /    A nd           | Website:  www.openfoam.com                      |
|    \\/     M anipulation  |                                                 |
\*---------------------------------------------------------------------------*/
Build  : d44c8318f0-20220111 OPENFOAM=2112 version=v2112
Arch   : "LSB;label=32;scalar=64"
Exec   : icoFoam -parallel
Date   : Oct 06 2022
Time   : 14:05:02
Host   : hkn1604.localdomain
PID    : 2801479
I/O    : uncollated
Case   : /hkfs/work/workspace/scratch/eq4036-lidDrivenCavity/single_node/mesh/250/matrix_solver/CG_NoPrecond_OpenFOAM_Default/mpiRank_of/76/base
nProcs : 76
Hosts  :
(
    (hkn1604.localdomain 76)
)
Pstream initialized with:
    floatTransfer      : 0
    nProcsSimpleSum    : 0
    commsType          : nonBlocking
    polling iterations : 0
trapFpe: Floating point exception trapping enabled (FOAM_SIGFPE).
fileModificationChecking : Monitoring run-time modified files using timeStampMaster (fileModificationSkew 5, maxFileModificationPolls 20)
allowSystemOperations : Allowing user-supplied system call operations

// * * * * * * * * * * * * * * * * * * * * * * * * * * * * * * * * * * * * * //
Create time

--> FOAM Warning : 
    From void* Foam::dlLibraryTable::openLibrary(const Foam::fileName&, bool)
    in file db/dynamicLibrary/dlLibraryTable/dlLibraryTable.C at line 188
    Could not load "libpetscFoam.so"
libcuda.so.1: cannot open shared object file: No such file or directory
Create mesh for time = 0


PISO: Operating solver in PISO mode

Reading transportProperties

Reading field p

Reading field U

Reading/calculating face flux field phi


Starting time loop

Time = 4e-05

Courant Number mean: 0 max: 0
DILUPBiCGStab:  Solving for Ux, Initial residual = 1, Final residual = 0.000693689, No Iterations 5
DILUPBiCGStab:  Solving for Uy:  solution singularity
DILUPBiCGStab:  Solving for Uz:  solution singularity
linear solve U 407144
nonePCG:  Solving for p, Initial residual = 1, Final residual = 9.95845e-05, No Iterations 2024
linear solve p 25042761
time step continuity errors : sum local = 4.82718e-10, global = -2.39105e-22, cumulative = -2.39105e-22
nonePCG:  Solving for p, Initial residual = 0.669037, Final residual = 9.93755e-05, No Iterations 1990
linear solve p 24001297
time step continuity errors : sum local = 6.78647e-10, global = -9.99881e-22, cumulative = -1.23899e-21
ExecutionTime = 51.36 s  ClockTime = 52 s

Time = 8e-05

Courant Number mean: 0.001426 max: 0.0690523
DILUPBiCGStab:  Solving for Ux, Initial residual = 0.180319, Final residual = 0.000426967, No Iterations 5
DILUPBiCGStab:  Solving for Uy, Initial residual = 0.336283, Final residual = 0.000333154, No Iterations 5
DILUPBiCGStab:  Solving for Uz, Initial residual = 0.994455, Final residual = 0.00133853, No Iterations 5
linear solve U 729147
nonePCG:  Solving for p, Initial residual = 0.56175, Final residual = 9.78777e-05, No Iterations 1960
linear solve p 23932413
time step continuity errors : sum local = 6.67037e-10, global = -1.27741e-21, cumulative = -2.51639e-21
nonePCG:  Solving for p, Initial residual = 0.474375, Final residual = 9.94513e-05, No Iterations 1954
linear solve p 23670579
time step continuity errors : sum local = 6.9671e-10, global = -1.22407e-21, cumulative = -3.74046e-21
ExecutionTime = 99.99 s  ClockTime = 101 s

Time = 0.00012

Courant Number mean: 0.00219179 max: 0.0832387
DILUPBiCGStab:  Solving for Ux, Initial residual = 0.0755365, Final residual = 0.00011889, No Iterations 5
DILUPBiCGStab:  Solving for Uy, Initial residual = 0.13706, Final residual = 9.20681e-05, No Iterations 5
DILUPBiCGStab:  Solving for Uz, Initial residual = 0.0998553, Final residual = 0.000188393, No Iterations 5
linear solve U 734357
nonePCG:  Solving for p, Initial residual = 0.347215, Final residual = 9.99783e-05, No Iterations 1909
linear solve p 23298477
time step continuity errors : sum local = 5.00611e-10, global = -1.3878e-21, cumulative = -5.12826e-21
nonePCG:  Solving for p, Initial residual = 0.292307, Final residual = 9.83225e-05, No Iterations 1903
linear solve p 22896341
time step continuity errors : sum local = 4.82912e-10, global = -1.23642e-21, cumulative = -6.36468e-21
ExecutionTime = 147.2 s  ClockTime = 149 s

Time = 0.00016

Courant Number mean: 0.0027205 max: 0.0875639
DILUPBiCGStab:  Solving for Ux, Initial residual = 0.0486734, Final residual = 4.94996e-05, No Iterations 5
DILUPBiCGStab:  Solving for Uy, Initial residual = 0.0860103, Final residual = 4.96236e-05, No Iterations 5
DILUPBiCGStab:  Solving for Uz, Initial residual = 0.111204, Final residual = 0.00015669, No Iterations 5
linear solve U 727792
nonePCG:  Solving for p, Initial residual = 0.167484, Final residual = 9.92389e-05, No Iterations 1872
linear solve p 22585597
time step continuity errors : sum local = 4.58725e-10, global = -1.19416e-21, cumulative = -7.55883e-21
nonePCG:  Solving for p, Initial residual = 0.135719, Final residual = 9.95914e-05, No Iterations 1863
linear solve p 22358584
time step continuity errors : sum local = 4.64653e-10, global = -1.42482e-21, cumulative = -8.98366e-21
ExecutionTime = 193.14 s  ClockTime = 195 s

Time = 0.0002

Courant Number mean: 0.00314353 max: 0.0896297
DILUPBiCGStab:  Solving for Ux, Initial residual = 0.0365199, Final residual = 2.30406e-05, No Iterations 5
DILUPBiCGStab:  Solving for Uy, Initial residual = 0.0622509, Final residual = 3.21433e-05, No Iterations 5
DILUPBiCGStab:  Solving for Uz, Initial residual = 0.0907348, Final residual = 8.95213e-05, No Iterations 5
linear solve U 732370
nonePCG:  Solving for p, Initial residual = 0.0880765, Final residual = 9.7584e-05, No Iterations 894
linear solve p 10735237
time step continuity errors : sum local = 4.59341e-10, global = -1.24716e-21, cumulative = -1.02308e-20
nonePCG:  Solving for p, Initial residual = 0.0725858, Final residual = 9.77704e-05, No Iterations 859
linear solve p 10337601
time step continuity errors : sum local = 4.38644e-10, global = -1.16912e-21, cumulative = -1.13999e-20
ExecutionTime = 215.38 s  ClockTime = 218 s

Time = 0.00024

Courant Number mean: 0.00350249 max: 0.0908924
DILUPBiCGStab:  Solving for Ux, Initial residual = 0.0294181, Final residual = 1.40277e-05, No Iterations 5
DILUPBiCGStab:  Solving for Uy, Initial residual = 0.0488617, Final residual = 1.98328e-05, No Iterations 5
DILUPBiCGStab:  Solving for Uz, Initial residual = 0.0775125, Final residual = 6.64756e-05, No Iterations 5
linear solve U 740356
nonePCG:  Solving for p, Initial residual = 0.0548292, Final residual = 9.9233e-05, No Iterations 844
linear solve p 10262525
time step continuity errors : sum local = 4.36077e-10, global = -1.17084e-21, cumulative = -1.25708e-20
nonePCG:  Solving for p, Initial residual = 0.0458911, Final residual = 9.96712e-05, No Iterations 820
linear solve p 10185427
time step continuity errors : sum local = 4.37275e-10, global = -9.80048e-22, cumulative = -1.35508e-20
ExecutionTime = 237.06 s  ClockTime = 240 s

Time = 0.00028

Courant Number mean: 0.00381743 max: 0.0917683
DILUPBiCGStab:  Solving for Ux, Initial residual = 0.0247211, Final residual = 9.65424e-06, No Iterations 5
DILUPBiCGStab:  Solving for Uy, Initial residual = 0.0401896, Final residual = 1.56558e-05, No Iterations 5
DILUPBiCGStab:  Solving for Uz, Initial residual = 0.0665394, Final residual = 4.81711e-05, No Iterations 5
linear solve U 728332
nonePCG:  Solving for p, Initial residual = 0.0364678, Final residual = 9.87058e-05, No Iterations 803
linear solve p 9496215
time step continuity errors : sum local = 4.4821e-10, global = -1.07527e-21, cumulative = -1.46261e-20
nonePCG:  Solving for p, Initial residual = 0.0314727, Final residual = 9.98359e-05, No Iterations 794
linear solve p 9501470
time step continuity errors : sum local = 4.40894e-10, global = -7.96727e-22, cumulative = -1.54228e-20
ExecutionTime = 257.28 s  ClockTime = 260 s

Time = 0.00032

Courant Number mean: 0.00409984 max: 0.0924225
DILUPBiCGStab:  Solving for Ux, Initial residual = 0.0213497, Final residual = 7.48374e-06, No Iterations 5
DILUPBiCGStab:  Solving for Uy, Initial residual = 0.0341205, Final residual = 1.21475e-05, No Iterations 5
DILUPBiCGStab:  Solving for Uz, Initial residual = 0.0580874, Final residual = 3.78136e-05, No Iterations 5
linear solve U 737008
nonePCG:  Solving for p, Initial residual = 0.025892, Final residual = 9.90268e-05, No Iterations 786
linear solve p 9409700
time step continuity errors : sum local = 4.34527e-10, global = -9.48593e-22, cumulative = -1.63714e-20
nonePCG:  Solving for p, Initial residual = 0.0228622, Final residual = 9.93338e-05, No Iterations 780
linear solve p 9407023
time step continuity errors : sum local = 4.35352e-10, global = -9.45292e-22, cumulative = -1.73167e-20
ExecutionTime = 277.36 s  ClockTime = 280 s

Time = 0.00036

Courant Number mean: 0.0043573 max: 0.0929352
DILUPBiCGStab:  Solving for Ux, Initial residual = 0.0188092, Final residual = 6.20998e-06, No Iterations 5
DILUPBiCGStab:  Solving for Uy, Initial residual = 0.0296248, Final residual = 1.02417e-05, No Iterations 5
DILUPBiCGStab:  Solving for Uz, Initial residual = 0.0518857, Final residual = 3.00835e-05, No Iterations 5
linear solve U 731319
nonePCG:  Solving for p, Initial residual = 0.0210505, Final residual = 9.99061e-05, No Iterations 766
linear solve p 9157257
time step continuity errors : sum local = 4.49551e-10, global = -6.3122e-22, cumulative = -1.79479e-20
nonePCG:  Solving for p, Initial residual = 0.0188619, Final residual = 9.92272e-05, No Iterations 758
linear solve p 9090463
time step continuity errors : sum local = 4.38896e-10, global = -8.20207e-22, cumulative = -1.87681e-20
ExecutionTime = 296.82 s  ClockTime = 300 s

Time = 0.0004

Courant Number mean: 0.00459408 max: 0.0933509
DILUPBiCGStab:  Solving for Ux, Initial residual = 0.0168169, Final residual = 5.39389e-06, No Iterations 5
DILUPBiCGStab:  Solving for Uy, Initial residual = 0.0261698, Final residual = 8.70016e-06, No Iterations 5
DILUPBiCGStab:  Solving for Uz, Initial residual = 0.0465972, Final residual = 2.4792e-05, No Iterations 5
linear solve U 729005
nonePCG:  Solving for p, Initial residual = 0.0171287, Final residual = 9.93423e-05, No Iterations 757
linear solve p 8991665
time step continuity errors : sum local = 4.38616e-10, global = -1.01182e-21, cumulative = -1.978e-20
nonePCG:  Solving for p, Initial residual = 0.0156038, Final residual = 9.90434e-05, No Iterations 752
linear solve p 8938258
time step continuity errors : sum local = 4.36787e-10, global = -9.51944e-22, cumulative = -2.07319e-20
ExecutionTime = 315.96 s  ClockTime = 319 s

Time = 0.00044

Courant Number mean: 0.00481427 max: 0.0936969
DILUPBiCGStab:  Solving for Ux, Initial residual = 0.0152127, Final residual = 4.80902e-06, No Iterations 5
DILUPBiCGStab:  Solving for Uy, Initial residual = 0.0234219, Final residual = 7.61363e-06, No Iterations 5
DILUPBiCGStab:  Solving for Uz, Initial residual = 0.0424456, Final residual = 2.05486e-05, No Iterations 5
linear solve U 728120
nonePCG:  Solving for p, Initial residual = 0.014802, Final residual = 9.81126e-05, No Iterations 749
linear solve p 8912863
time step continuity errors : sum local = 4.41131e-10, global = -9.83827e-22, cumulative = -2.17157e-20
nonePCG:  Solving for p, Initial residual = 0.0135425, Final residual = 9.92242e-05, No Iterations 740
linear solve p 8827781
time step continuity errors : sum local = 4.4058e-10, global = -8.8389e-22, cumulative = -2.25996e-20
ExecutionTime = 334.94 s  ClockTime = 338 s

Time = 0.00048

Courant Number mean: 0.00502003 max: 0.0939906
DILUPBiCGStab:  Solving for Ux, Initial residual = 0.0138887, Final residual = 4.3688e-06, No Iterations 5
DILUPBiCGStab:  Solving for Uy, Initial residual = 0.0211918, Final residual = 6.73124e-06, No Iterations 5
DILUPBiCGStab:  Solving for Uz, Initial residual = 0.0388179, Final residual = 1.77021e-05, No Iterations 5
linear solve U 742531
nonePCG:  Solving for p, Initial residual = 0.0129705, Final residual = 9.81125e-05, No Iterations 743
linear solve p 8836381
time step continuity errors : sum local = 4.35544e-10, global = -9.71275e-22, cumulative = -2.35709e-20
nonePCG:  Solving for p, Initial residual = 0.0119315, Final residual = 9.68563e-05, No Iterations 737
linear solve p 8927856
time step continuity errors : sum local = 4.29564e-10, global = -1.02288e-21, cumulative = -2.45938e-20
ExecutionTime = 353.96 s  ClockTime = 357 s

Time = 0.00052

Courant Number mean: 0.00521376 max: 0.094244
DILUPBiCGStab:  Solving for Ux, Initial residual = 0.012778, Final residual = 4.02334e-06, No Iterations 5
DILUPBiCGStab:  Solving for Uy, Initial residual = 0.0193398, Final residual = 6.0349e-06, No Iterations 5
DILUPBiCGStab:  Solving for Uz, Initial residual = 0.0358547, Final residual = 1.52626e-05, No Iterations 5
linear solve U 730720
nonePCG:  Solving for p, Initial residual = 0.0115205, Final residual = 9.6776e-05, No Iterations 737
linear solve p 8834706
time step continuity errors : sum local = 4.35501e-10, global = -6.50124e-22, cumulative = -2.52439e-20
nonePCG:  Solving for p, Initial residual = 0.0106309, Final residual = 9.96507e-05, No Iterations 728
linear solve p 8784355
time step continuity errors : sum local = 4.43963e-10, global = -5.2324e-22, cumulative = -2.57671e-20
ExecutionTime = 372.84 s  ClockTime = 376 s

Time = 0.00056

Courant Number mean: 0.00539669 max: 0.0944656
DILUPBiCGStab:  Solving for Ux, Initial residual = 0.011831, Final residual = 3.74557e-06, No Iterations 5
DILUPBiCGStab:  Solving for Uy, Initial residual = 0.0177819, Final residual = 5.45529e-06, No Iterations 5
DILUPBiCGStab:  Solving for Uz, Initial residual = 0.0332256, Final residual = 1.36128e-05, No Iterations 5
linear solve U 728803
nonePCG:  Solving for p, Initial residual = 0.0104164, Final residual = 9.9892e-05, No Iterations 736
linear solve p 8811556
time step continuity errors : sum local = 4.44921e-10, global = -7.00572e-22, cumulative = -2.64677e-20
nonePCG:  Solving for p, Initial residual = 0.00961131, Final residual = 9.7782e-05, No Iterations 728
linear solve p 8759566
time step continuity errors : sum local = 4.35337e-10, global = -9.13168e-22, cumulative = -2.73809e-20
ExecutionTime = 391.66 s  ClockTime = 395 s

Time = 0.0006

Courant Number mean: 0.00557054 max: 0.0946614
DILUPBiCGStab:  Solving for Ux, Initial residual = 0.0110154, Final residual = 3.51661e-06, No Iterations 5
DILUPBiCGStab:  Solving for Uy, Initial residual = 0.0164497, Final residual = 4.97135e-06, No Iterations 5
DILUPBiCGStab:  Solving for Uz, Initial residual = 0.0310151, Final residual = 1.21075e-05, No Iterations 5
linear solve U 740746
nonePCG:  Solving for p, Initial residual = 0.00942531, Final residual = 9.8558e-05, No Iterations 732
linear solve p 8887774
time step continuity errors : sum local = 4.43731e-10, global = -8.78166e-22, cumulative = -2.8259e-20
nonePCG:  Solving for p, Initial residual = 0.00872608, Final residual = 9.91779e-05, No Iterations 722
linear solve p 8726036
time step continuity errors : sum local = 4.4326e-10, global = -7.25826e-22, cumulative = -2.89849e-20
ExecutionTime = 410.52 s  ClockTime = 414 s

Time = 0.00064

Courant Number mean: 0.00573581 max: 0.0948361
DILUPBiCGStab:  Solving for Ux, Initial residual = 0.0103033, Final residual = 3.32348e-06, No Iterations 5
DILUPBiCGStab:  Solving for Uy, Initial residual = 0.0153005, Final residual = 4.55831e-06, No Iterations 5
DILUPBiCGStab:  Solving for Uz, Initial residual = 0.0290279, Final residual = 1.10546e-05, No Iterations 5
linear solve U 740843
nonePCG:  Solving for p, Initial residual = 0.00866363, Final residual = 9.99828e-05, No Iterations 743
linear solve p 8946260
time step continuity errors : sum local = 4.46567e-10, global = -7.55098e-22, cumulative = -2.974e-20
nonePCG:  Solving for p, Initial residual = 0.007984, Final residual = 9.84006e-05, No Iterations 725
linear solve p 8866764
time step continuity errors : sum local = 4.3943e-10, global = -5.34441e-22, cumulative = -3.02744e-20
ExecutionTime = 429.56 s  ClockTime = 434 s

Time = 0.00068

Courant Number mean: 0.00589397 max: 0.0949933
DILUPBiCGStab:  Solving for Ux, Initial residual = 0.00967703, Final residual = 3.15707e-06, No Iterations 5
DILUPBiCGStab:  Solving for Uy, Initial residual = 0.0142967, Final residual = 4.20398e-06, No Iterations 5
DILUPBiCGStab:  Solving for Uz, Initial residual = 0.0273109, Final residual = 1.00396e-05, No Iterations 5
linear solve U 729717
nonePCG:  Solving for p, Initial residual = 0.00793809, Final residual = 9.90593e-05, No Iterations 732
linear solve p 8783144
time step continuity errors : sum local = 4.46564e-10, global = -5.09222e-22, cumulative = -3.07836e-20
nonePCG:  Solving for p, Initial residual = 0.00732691, Final residual = 9.96987e-05, No Iterations 718
linear solve p 8645390
time step continuity errors : sum local = 4.46685e-10, global = -4.54158e-22, cumulative = -3.12378e-20
ExecutionTime = 448.21 s  ClockTime = 452 s

Time = 0.00072

Courant Number mean: 0.00604524 max: 0.0951356
DILUPBiCGStab:  Solving for Ux, Initial residual = 0.00912184, Final residual = 3.01004e-06, No Iterations 5
DILUPBiCGStab:  Solving for Uy, Initial residual = 0.0134143, Final residual = 3.89646e-06, No Iterations 5
DILUPBiCGStab:  Solving for Uz, Initial residual = 0.0257484, Final residual = 9.30786e-06, No Iterations 5
linear solve U 737458
nonePCG:  Solving for p, Initial residual = 0.00742542, Final residual = 9.99058e-05, No Iterations 758
linear solve p 9079107
time step continuity errors : sum local = 4.47239e-10, global = -6.5801e-22, cumulative = -3.18958e-20
nonePCG:  Solving for p, Initial residual = 0.00684209, Final residual = 9.92979e-05, No Iterations 725
linear solve p 8791545
time step continuity errors : sum local = 4.44513e-10, global = -1.02309e-21, cumulative = -3.29189e-20
ExecutionTime = 467.29 s  ClockTime = 472 s

Time = 0.00076

Courant Number mean: 0.00619044 max: 0.0952653
DILUPBiCGStab:  Solving for Ux, Initial residual = 0.00862567, Final residual = 2.87807e-06, No Iterations 5
DILUPBiCGStab:  Solving for Uy, Initial residual = 0.0126311, Final residual = 3.62685e-06, No Iterations 5
DILUPBiCGStab:  Solving for Uz, Initial residual = 0.0243586, Final residual = 8.57133e-06, No Iterations 5
linear solve U 728716
nonePCG:  Solving for p, Initial residual = 0.00691346, Final residual = 9.99875e-05, No Iterations 722
linear solve p 8786610
time step continuity errors : sum local = 4.51264e-10, global = -7.26633e-22, cumulative = -3.36455e-20
nonePCG:  Solving for p, Initial residual = 0.00637595, Final residual = 9.89891e-05, No Iterations 711
linear solve p 8548895
time step continuity errors : sum local = 4.44624e-10, global = -7.66212e-22, cumulative = -3.44117e-20
ExecutionTime = 485.85 s  ClockTime = 490 s

Time = 0.0008

Courant Number mean: 0.00633025 max: 0.0953841
DILUPBiCGStab:  Solving for Ux, Initial residual = 0.00818017, Final residual = 2.75741e-06, No Iterations 5
DILUPBiCGStab:  Solving for Uy, Initial residual = 0.0119322, Final residual = 3.3881e-06, No Iterations 5
DILUPBiCGStab:  Solving for Uz, Initial residual = 0.023092, Final residual = 8.02935e-06, No Iterations 5
linear solve U 737226
nonePCG:  Solving for p, Initial residual = 0.00649828, Final residual = 9.89978e-05, No Iterations 750
linear solve p 9106077
time step continuity errors : sum local = 4.44216e-10, global = -5.27797e-22, cumulative = -3.49395e-20
nonePCG:  Solving for p, Initial residual = 0.00599905, Final residual = 9.86127e-05, No Iterations 718
linear solve p 8557411
time step continuity errors : sum local = 4.42557e-10, global = -2.98339e-22, cumulative = -3.52379e-20
ExecutionTime = 504.72 s  ClockTime = 509 s

End

Finalising parallel run
================================================================================
