hash: 50f6a96c8589526eaeb5955c4a312235
/*---------------------------------------------------------------------------*\
| =========                 |                                                 |
| \\      /  F ield         | OpenFOAM: The Open Source CFD Toolbox           |
|  \\    /   O peration     | Version:  v2106                                 |
|   \\  /    A nd           | Website:  www.openfoam.com                      |
|    \\/     M anipulation  |                                                 |
\*---------------------------------------------------------------------------*/
Build  : f815a12bba-20210902 OPENFOAM=2106
Arch   : "LSB;label=32;scalar=64"
Exec   : icoFoam -parallel
Date   : Oct 06 2022
Time   : 08:50:14
Host   : nla-gpu2.ianm.kit.edu
PID    : 1635978
I/O    : uncollated
Case   : /home/greole/data/code/ogl_labbook/lidDrivenCavity/single_node/mesh/100/matrix_solver/CG_NoPrecond_Ginkgo_HIP/mpiRank_gko/8/base
nProcs : 8
Hosts  :
(
    (nla-gpu2.ianm.kit.edu 8)
)
Pstream initialized with:
    floatTransfer      : 0
    nProcsSimpleSum    : 0
    commsType          : nonBlocking
    polling iterations : 0
trapFpe: Floating point exception trapping enabled (FOAM_SIGFPE).
fileModificationChecking : Monitoring run-time modified files using timeStampMaster (fileModificationSkew 5, maxFileModificationPolls 20)
allowSystemOperations : Allowing user-supplied system call operations

// * * * * * * * * * * * * * * * * * * * * * * * * * * * * * * * * * * * * * //
Create time

Create mesh for time = 0


PISO: Operating solver in PISO mode

Reading transportProperties

Reading field p

Reading field U

Reading/calculating face flux field phi


Starting time loop

Time = 0.0001

Courant Number mean: 0 max: 0
DILUPBiCGStab:  Solving for Ux, Initial residual = 1, Final residual = 3.41774e-06, No Iterations 5
DILUPBiCGStab:  Solving for Uy:  solution singularity
DILUPBiCGStab:  Solving for Uz:  solution singularity
linear solve U 65.15 [ms]
piso setup 31.766 [ms]
 correctNonOrthogonal 
 setRef 
 startSolve 
[OGL LOG][lduLduBase.H:113] Initialising OGL
	OGL commit:  cc46b9f
	Branch: distributed-update 
	Ginkgo version: 1.5.0 ( develop)
	Ginkgo commit: 33f63e9
	MPI is GPU aware: 1
	Forces host buffer based communication: 1
	CPU ranks per GPU: 1
	Matrix format: Coo
	End OGL_INFO
[OGL LOG][Proc: 0]global_index_init: 10.535 [ms]
[OGL LOG][Proc: 0]p_local_cols: call_init: 0 [ms]
[OGL LOG][Proc: 0]p_local_rows: call_init: 0 [ms]
[OGL LOG][Proc: 0]p_local_ldu_map: call_init: 0 [ms]
[OGL LOG][Proc: 0]p_local_coeffs: call_init: 0 [ms]
[OGL LOG][Proc: 0]p_non_local_cols: call_init: 0 [ms]
[OGL LOG][Proc: 0]p_non_local_rows: call_init: 0 [ms]
[OGL LOG][Proc: 0]p_non_local_ldu_map: call_init: 0 [ms]
[OGL LOG][Proc: 0]p_non_local_coeffs: call_init: 0 [ms]
[OGL LOG][Proc: 0]init_local_sparsity_pattern: 16.404 [ms]
[OGL LOG][Proc: 0]init_non_local_sparsity_pattern: 7.009 [ms]
[OGL LOG][Proc: 0]update_local_matrix_data: 9.748 [ms]
[OGL LOG][Proc: 0]update_non_local_matrix_data: 5.299 [ms]
[OGL LOG][Proc: 0]device_partition: call_init: 0 [ms]
[OGL LOG][Proc: 0]p_matrix: call_init: 0 [ms]
[OGL LOG][Proc: 0]p_rhs: call_init: 0 [ms]
[OGL LOG][Proc: 0]p_solution: call_init: 0 [ms]
[OGL LOG][Proc: 0]init_precond: 0.102 [ms]
[OGL LOG][StoppingCriterion.H:588] Creating stopping criterion with minIter 0 frequency 10
[OGL LOG][Proc: 0]generate_solver: 0.028 [ms]
[OGL LOG][Proc: 0]solve: 354.282 [ms]
[OGL LOG][Proc: 0]copy_x_back: 0.368 [ms]
[OGL LOG][lduLduBase.H:303] 
Statistics:
	Time per iteration: 442 [mu s]
	Time per residual norm calculation: 1035.000000 [mu s]
	Time per iteration and DOF: 0.442000 [ns]
	Retrieve results bandwith 2.717000 [GByte/s]
nonehipGKOCG:  Solving for p, Initial residual = 1, Final residual = 7.32937e-05, No Iterations 801
linear solve p 936.268 [ms]
piso step 948.613 [ms]
 contErrors 
time step continuity errors : sum local = 1.2949e-09, global = -4.20206e-22, cumulative = -4.20206e-22
piso setup 20.138 [ms]
 correctNonOrthogonal 
 setRef 
 startSolve 
[OGL LOG][Proc: 0]global_index_init: 0.038 [ms]
[OGL LOG][Proc: 0]p_local_coeffs: call_update: 0.004 [ms]
[OGL LOG][Proc: 0]p_non_local_coeffs: call_update: 0 [ms]
[OGL LOG][Proc: 0]update_local_matrix_data: 6.118 [ms]
[OGL LOG][Proc: 0]update_non_local_matrix_data: 1.271 [ms]
[OGL LOG][Proc: 0]p_matrix: call_update: 2.093 [ms]
[OGL LOG][Proc: 0]p_rhs: call_update: 0.414 [ms]
[OGL LOG][Proc: 0]init_precond: 0.048 [ms]
[OGL LOG][StoppingCriterion.H:588] Creating stopping criterion with minIter 480 frequency 10
[OGL LOG][Proc: 0]generate_solver: 0.003 [ms]
[OGL LOG][Proc: 0]solve: 350.932 [ms]
[OGL LOG][Proc: 0]copy_x_back: 0.566 [ms]
[OGL LOG][lduLduBase.H:303] 
Statistics:
	Time per iteration: 449 [mu s]
	Time per residual norm calculation: 138.000000 [mu s]
	Time per iteration and DOF: 0.449000 [ns]
	Retrieve results bandwith 1.766000 [GByte/s]
nonehipGKOCG:  Solving for p, Initial residual = 0.559991, Final residual = 7.77973e-05, No Iterations 781
linear solve p 362.758 [ms]
piso step 371.957 [ms]
 contErrors 
time step continuity errors : sum local = 2.12799e-09, global = -5.2186e-22, cumulative = -9.42067e-22
ExecutionTime = 2.25 s  ClockTime = 2 s

Time = 0.0002

Courant Number mean: 0.00201333 max: 0.0540371
DILUPBiCGStab:  Solving for Ux, Initial residual = 0.216464, Final residual = 2.36891e-06, No Iterations 5
DILUPBiCGStab:  Solving for Uy, Initial residual = 0.309937, Final residual = 1.75831e-06, No Iterations 5
DILUPBiCGStab:  Solving for Uz, Initial residual = 0.981351, Final residual = 5.76078e-06, No Iterations 5
linear solve U 103.652 [ms]
piso setup 18.644 [ms]
 correctNonOrthogonal 
 setRef 
 startSolve 
[OGL LOG][Proc: 0]global_index_init: 0.064 [ms]
[OGL LOG][Proc: 0]p_local_coeffs: call_update: 0 [ms]
[OGL LOG][Proc: 0]p_non_local_coeffs: call_update: 0 [ms]
[OGL LOG][Proc: 0]update_local_matrix_data: 6.996 [ms]
[OGL LOG][Proc: 0]update_non_local_matrix_data: 1.897 [ms]
[OGL LOG][Proc: 0]p_matrix: call_update: 1.974 [ms]
[OGL LOG][Proc: 0]p_rhs: call_update: 0.399 [ms]
[OGL LOG][Proc: 0]init_precond: 0.045 [ms]
[OGL LOG][StoppingCriterion.H:588] Creating stopping criterion with minIter 468 frequency 10
[OGL LOG][Proc: 0]generate_solver: 0.003 [ms]
[OGL LOG][Proc: 0]solve: 319.854 [ms]
[OGL LOG][Proc: 0]copy_x_back: 0.343 [ms]
[OGL LOG][lduLduBase.H:303] 
Statistics:
	Time per iteration: 414 [mu s]
	Time per residual norm calculation: 133.000000 [mu s]
	Time per iteration and DOF: 0.414000 [ns]
	Retrieve results bandwith 2.915000 [GByte/s]
nonehipGKOCG:  Solving for p, Initial residual = 0.381674, Final residual = 8.18494e-05, No Iterations 771
linear solve p 332.368 [ms]
piso step 339.473 [ms]
 contErrors 
time step continuity errors : sum local = 2.14056e-09, global = 6.55268e-22, cumulative = -2.86799e-22
piso setup 16.33 [ms]
 correctNonOrthogonal 
 setRef 
 startSolve 
[OGL LOG][Proc: 0]global_index_init: 0.036 [ms]
[OGL LOG][Proc: 0]p_local_coeffs: call_update: 0 [ms]
[OGL LOG][Proc: 0]p_non_local_coeffs: call_update: 0 [ms]
[OGL LOG][Proc: 0]update_local_matrix_data: 5.221 [ms]
[OGL LOG][Proc: 0]update_non_local_matrix_data: 0.163 [ms]
[OGL LOG][Proc: 0]p_matrix: call_update: 1.959 [ms]
[OGL LOG][Proc: 0]p_rhs: call_update: 1.862 [ms]
[OGL LOG][Proc: 0]init_precond: 0.048 [ms]
[OGL LOG][StoppingCriterion.H:588] Creating stopping criterion with minIter 462 frequency 10
[OGL LOG][Proc: 0]generate_solver: 0.003 [ms]
[OGL LOG][Proc: 0]solve: 337.835 [ms]
[OGL LOG][Proc: 0]copy_x_back: 0.555 [ms]
[OGL LOG][lduLduBase.H:303] 
Statistics:
	Time per iteration: 438 [mu s]
	Time per residual norm calculation: 130.000000 [mu s]
	Time per iteration and DOF: 0.438000 [ns]
	Retrieve results bandwith 1.801000 [GByte/s]
nonehipGKOCG:  Solving for p, Initial residual = 0.284783, Final residual = 5.62126e-05, No Iterations 771
linear solve p 348.799 [ms]
piso step 356.146 [ms]
 contErrors 
time step continuity errors : sum local = 1.54031e-09, global = 1.64968e-22, cumulative = -1.2183e-22
ExecutionTime = 3.12 s  ClockTime = 3 s

Time = 0.0003

Courant Number mean: 0.00317979 max: 0.0721774
DILUPBiCGStab:  Solving for Ux, Initial residual = 0.0963257, Final residual = 9.73983e-07, No Iterations 5
DILUPBiCGStab:  Solving for Uy, Initial residual = 0.140691, Final residual = 5.64827e-07, No Iterations 5
DILUPBiCGStab:  Solving for Uz, Initial residual = 0.205591, Final residual = 1.2897e-06, No Iterations 5
linear solve U 105.602 [ms]
piso setup 15.259 [ms]
 correctNonOrthogonal 
 setRef 
 startSolve 
[OGL LOG][Proc: 0]global_index_init: 0.045 [ms]
[OGL LOG][Proc: 0]p_local_coeffs: call_update: 0 [ms]
[OGL LOG][Proc: 0]p_non_local_coeffs: call_update: 0 [ms]
[OGL LOG][Proc: 0]update_local_matrix_data: 6.814 [ms]
[OGL LOG][Proc: 0]update_non_local_matrix_data: 1.488 [ms]
[OGL LOG][Proc: 0]p_matrix: call_update: 1.877 [ms]
[OGL LOG][Proc: 0]p_rhs: call_update: 0.435 [ms]
[OGL LOG][Proc: 0]init_precond: 0.044 [ms]
[OGL LOG][StoppingCriterion.H:588] Creating stopping criterion with minIter 462 frequency 10
[OGL LOG][Proc: 0]generate_solver: 0.003 [ms]
[OGL LOG][Proc: 0]solve: 305.199 [ms]
[OGL LOG][Proc: 0]copy_x_back: 0.335 [ms]
[OGL LOG][lduLduBase.H:303] 
Statistics:
	Time per iteration: 406 [mu s]
	Time per residual norm calculation: 132.000000 [mu s]
	Time per iteration and DOF: 0.406000 [ns]
	Retrieve results bandwith 2.985000 [GByte/s]
nonehipGKOCG:  Solving for p, Initial residual = 0.128559, Final residual = 9.41365e-05, No Iterations 751
linear solve p 317.048 [ms]
piso step 324.286 [ms]
 contErrors 
time step continuity errors : sum local = 2.21804e-09, global = 1.96806e-22, cumulative = 7.49758e-23
piso setup 12.793 [ms]
 correctNonOrthogonal 
 setRef 
 startSolve 
[OGL LOG][Proc: 0]global_index_init: 0.043 [ms]
[OGL LOG][Proc: 0]p_local_coeffs: call_update: 0 [ms]
[OGL LOG][Proc: 0]p_non_local_coeffs: call_update: 0 [ms]
[OGL LOG][Proc: 0]update_local_matrix_data: 5.237 [ms]
[OGL LOG][Proc: 0]update_non_local_matrix_data: 0.158 [ms]
[OGL LOG][Proc: 0]p_matrix: call_update: 2.243 [ms]
[OGL LOG][Proc: 0]p_rhs: call_update: 0.492 [ms]
[OGL LOG][Proc: 0]init_precond: 0.045 [ms]
[OGL LOG][StoppingCriterion.H:588] Creating stopping criterion with minIter 450 frequency 10
[OGL LOG][Proc: 0]generate_solver: 0.004 [ms]
[OGL LOG][Proc: 0]solve: 302.742 [ms]
[OGL LOG][Proc: 0]copy_x_back: 0.336 [ms]
[OGL LOG][lduLduBase.H:303] 
Statistics:
	Time per iteration: 408 [mu s]
	Time per residual norm calculation: 128.000000 [mu s]
	Time per iteration and DOF: 0.408000 [ns]
	Retrieve results bandwith 2.976000 [GByte/s]
nonehipGKOCG:  Solving for p, Initial residual = 0.0995964, Final residual = 8.0841e-05, No Iterations 741
linear solve p 312.032 [ms]
piso step 316.982 [ms]
 contErrors 
time step continuity errors : sum local = 1.92959e-09, global = -4.03662e-22, cumulative = -3.28686e-22
ExecutionTime = 3.93 s  ClockTime = 4 s

Time = 0.0004

Courant Number mean: 0.00397985 max: 0.0793326
DILUPBiCGStab:  Solving for Ux, Initial residual = 0.0593651, Final residual = 4.7211e-07, No Iterations 5
DILUPBiCGStab:  Solving for Uy, Initial residual = 0.0868086, Final residual = 2.90808e-07, No Iterations 5
DILUPBiCGStab:  Solving for Uz, Initial residual = 0.127078, Final residual = 6.27981e-07, No Iterations 5
linear solve U 101.129 [ms]
piso setup 15.116 [ms]
 correctNonOrthogonal 
 setRef 
 startSolve 
[OGL LOG][Proc: 0]global_index_init: 0.036 [ms]
[OGL LOG][Proc: 0]p_local_coeffs: call_update: 0 [ms]
[OGL LOG][Proc: 0]p_non_local_coeffs: call_update: 0 [ms]
[OGL LOG][Proc: 0]update_local_matrix_data: 5.005 [ms]
[OGL LOG][Proc: 0]update_non_local_matrix_data: 0.205 [ms]
[OGL LOG][Proc: 0]p_matrix: call_update: 2.411 [ms]
[OGL LOG][Proc: 0]p_rhs: call_update: 0.491 [ms]
[OGL LOG][Proc: 0]init_precond: 0.043 [ms]
[OGL LOG][StoppingCriterion.H:588] Creating stopping criterion with minIter 444 frequency 10
[OGL LOG][Proc: 0]generate_solver: 0.004 [ms]
[OGL LOG][Proc: 0]solve: 335.06 [ms]
[OGL LOG][Proc: 0]copy_x_back: 0.553 [ms]
[OGL LOG][lduLduBase.H:303] 
Statistics:
	Time per iteration: 458 [mu s]
	Time per residual norm calculation: 131.000000 [mu s]
	Time per iteration and DOF: 0.458000 [ns]
	Retrieve results bandwith 1.808000 [GByte/s]
nonehipGKOCG:  Solving for p, Initial residual = 0.0642493, Final residual = 9.11321e-05, No Iterations 731
linear solve p 344.966 [ms]
piso step 352.529 [ms]
 contErrors 
time step continuity errors : sum local = 2.11276e-09, global = -4.66929e-22, cumulative = -7.95615e-22
piso setup 15.259 [ms]
 correctNonOrthogonal 
 setRef 
 startSolve 
[OGL LOG][Proc: 0]global_index_init: 0.039 [ms]
[OGL LOG][Proc: 0]p_local_coeffs: call_update: 0 [ms]
[OGL LOG][Proc: 0]p_non_local_coeffs: call_update: 0 [ms]
[OGL LOG][Proc: 0]update_local_matrix_data: 7.063 [ms]
[OGL LOG][Proc: 0]update_non_local_matrix_data: 2.049 [ms]
[OGL LOG][Proc: 0]p_matrix: call_update: 2.139 [ms]
[OGL LOG][Proc: 0]p_rhs: call_update: 0.406 [ms]
[OGL LOG][Proc: 0]init_precond: 0.044 [ms]
[OGL LOG][StoppingCriterion.H:588] Creating stopping criterion with minIter 438 frequency 10
[OGL LOG][Proc: 0]generate_solver: 0.003 [ms]
[OGL LOG][Proc: 0]solve: 300.66 [ms]
[OGL LOG][Proc: 0]copy_x_back: 0.344 [ms]
[OGL LOG][lduLduBase.H:303] 
Statistics:
	Time per iteration: 417 [mu s]
	Time per residual norm calculation: 124.000000 [mu s]
	Time per iteration and DOF: 0.417000 [ns]
	Retrieve results bandwith 2.906000 [GByte/s]
nonehipGKOCG:  Solving for p, Initial residual = 0.0496939, Final residual = 9.84467e-05, No Iterations 721
linear solve p 313.473 [ms]
piso step 319.289 [ms]
 contErrors 
time step continuity errors : sum local = 2.31781e-09, global = 1.71747e-22, cumulative = -6.23868e-22
ExecutionTime = 4.75 s  ClockTime = 5 s

Time = 0.0005

Courant Number mean: 0.0046013 max: 0.0828851
DILUPBiCGStab:  Solving for Ux, Initial residual = 0.0428599, Final residual = 3.10042e-07, No Iterations 5
DILUPBiCGStab:  Solving for Uy, Initial residual = 0.061865, Final residual = 1.66959e-07, No Iterations 5
DILUPBiCGStab:  Solving for Uz, Initial residual = 0.0970978, Final residual = 4.22277e-07, No Iterations 5
linear solve U 104.692 [ms]
piso setup 13.859 [ms]
 correctNonOrthogonal 
 setRef 
 startSolve 
[OGL LOG][Proc: 0]global_index_init: 0.027 [ms]
[OGL LOG][Proc: 0]p_local_coeffs: call_update: 0 [ms]
[OGL LOG][Proc: 0]p_non_local_coeffs: call_update: 0 [ms]
[OGL LOG][Proc: 0]update_local_matrix_data: 5.033 [ms]
[OGL LOG][Proc: 0]update_non_local_matrix_data: 0.514 [ms]
[OGL LOG][Proc: 0]p_matrix: call_update: 1.867 [ms]
[OGL LOG][Proc: 0]p_rhs: call_update: 1.271 [ms]
[OGL LOG][Proc: 0]init_precond: 0.043 [ms]
[OGL LOG][StoppingCriterion.H:588] Creating stopping criterion with minIter 432 frequency 10
[OGL LOG][Proc: 0]generate_solver: 0.003 [ms]
[OGL LOG][Proc: 0]solve: 295.752 [ms]
[OGL LOG][Proc: 0]copy_x_back: 0.343 [ms]
[OGL LOG][lduLduBase.H:303] 
Statistics:
	Time per iteration: 410 [mu s]
	Time per residual norm calculation: 126.000000 [mu s]
	Time per iteration and DOF: 0.410000 [ns]
	Retrieve results bandwith 2.915000 [GByte/s]
nonehipGKOCG:  Solving for p, Initial residual = 0.0389438, Final residual = 7.76938e-05, No Iterations 721
linear solve p 305.578 [ms]
piso step 311.398 [ms]
 contErrors 
time step continuity errors : sum local = 1.82744e-09, global = -4.38041e-22, cumulative = -1.06191e-21
piso setup 13.059 [ms]
 correctNonOrthogonal 
 setRef 
 startSolve 
[OGL LOG][Proc: 0]global_index_init: 0.021 [ms]
[OGL LOG][Proc: 0]p_local_coeffs: call_update: 0 [ms]
[OGL LOG][Proc: 0]p_non_local_coeffs: call_update: 0 [ms]
[OGL LOG][Proc: 0]update_local_matrix_data: 5.104 [ms]
[OGL LOG][Proc: 0]update_non_local_matrix_data: 0.16 [ms]
[OGL LOG][Proc: 0]p_matrix: call_update: 2.408 [ms]
[OGL LOG][Proc: 0]p_rhs: call_update: 0.446 [ms]
[OGL LOG][Proc: 0]init_precond: 0.047 [ms]
[OGL LOG][StoppingCriterion.H:588] Creating stopping criterion with minIter 432 frequency 10
[OGL LOG][Proc: 0]generate_solver: 0.004 [ms]
[OGL LOG][Proc: 0]solve: 293.472 [ms]
[OGL LOG][Proc: 0]copy_x_back: 0.334 [ms]
[OGL LOG][lduLduBase.H:303] 
Statistics:
	Time per iteration: 407 [mu s]
	Time per residual norm calculation: 127.000000 [mu s]
	Time per iteration and DOF: 0.407000 [ns]
	Retrieve results bandwith 2.994000 [GByte/s]
nonehipGKOCG:  Solving for p, Initial residual = 0.0305781, Final residual = 6.03294e-05, No Iterations 721
linear solve p 302.762 [ms]
piso step 308.447 [ms]
 contErrors 
time step continuity errors : sum local = 1.42915e-09, global = -4.25597e-22, cumulative = -1.48751e-21
ExecutionTime = 5.53 s  ClockTime = 6 s

Time = 0.0006

Courant Number mean: 0.00511864 max: 0.0850108
DILUPBiCGStab:  Solving for Ux, Initial residual = 0.0336738, Final residual = 2.21836e-07, No Iterations 5
DILUPBiCGStab:  Solving for Uy, Initial residual = 0.0480392, Final residual = 1.1549e-07, No Iterations 5
DILUPBiCGStab:  Solving for Uz, Initial residual = 0.079454, Final residual = 3.32713e-07, No Iterations 5
linear solve U 105.566 [ms]
piso setup 15.743 [ms]
 correctNonOrthogonal 
 setRef 
 startSolve 
[OGL LOG][Proc: 0]global_index_init: 0.066 [ms]
[OGL LOG][Proc: 0]p_local_coeffs: call_update: 0 [ms]
[OGL LOG][Proc: 0]p_non_local_coeffs: call_update: 0 [ms]
[OGL LOG][Proc: 0]update_local_matrix_data: 4.974 [ms]
[OGL LOG][Proc: 0]update_non_local_matrix_data: 3.354 [ms]
[OGL LOG][Proc: 0]p_matrix: call_update: 1.976 [ms]
[OGL LOG][Proc: 0]p_rhs: call_update: 0.406 [ms]
[OGL LOG][Proc: 0]init_precond: 0.045 [ms]
[OGL LOG][StoppingCriterion.H:588] Creating stopping criterion with minIter 432 frequency 10
[OGL LOG][Proc: 0]generate_solver: 0.003 [ms]
[OGL LOG][Proc: 0]solve: 324.135 [ms]
[OGL LOG][Proc: 0]copy_x_back: 0.44 [ms]
[OGL LOG][lduLduBase.H:303] 
Statistics:
	Time per iteration: 449 [mu s]
	Time per residual norm calculation: 136.000000 [mu s]
	Time per iteration and DOF: 0.449000 [ns]
	Retrieve results bandwith 2.272000 [GByte/s]
nonehipGKOCG:  Solving for p, Initial residual = 0.026822, Final residual = 5.79439e-05, No Iterations 721
linear solve p 336.632 [ms]
piso step 343.326 [ms]
 contErrors 
time step continuity errors : sum local = 1.37449e-09, global = -9.34953e-23, cumulative = -1.581e-21
piso setup 17.137 [ms]
 correctNonOrthogonal 
 setRef 
 startSolve 
[OGL LOG][Proc: 0]global_index_init: 0.056 [ms]
[OGL LOG][Proc: 0]p_local_coeffs: call_update: 0 [ms]
[OGL LOG][Proc: 0]p_non_local_coeffs: call_update: 0 [ms]
[OGL LOG][Proc: 0]update_local_matrix_data: 6.938 [ms]
[OGL LOG][Proc: 0]update_non_local_matrix_data: 2.09 [ms]
[OGL LOG][Proc: 0]p_matrix: call_update: 1.965 [ms]
[OGL LOG][Proc: 0]p_rhs: call_update: 0.415 [ms]
[OGL LOG][Proc: 0]init_precond: 0.041 [ms]
[OGL LOG][StoppingCriterion.H:588] Creating stopping criterion with minIter 432 frequency 10
[OGL LOG][Proc: 0]generate_solver: 0.004 [ms]
[OGL LOG][Proc: 0]solve: 286.093 [ms]
[OGL LOG][Proc: 0]copy_x_back: 0.34 [ms]
[OGL LOG][lduLduBase.H:303] 
Statistics:
	Time per iteration: 408 [mu s]
	Time per residual norm calculation: 138.000000 [mu s]
	Time per iteration and DOF: 0.408000 [ns]
	Retrieve results bandwith 2.941000 [GByte/s]
nonehipGKOCG:  Solving for p, Initial residual = 0.021264, Final residual = 9.88452e-05, No Iterations 701
linear solve p 298.682 [ms]
piso step 304.273 [ms]
 contErrors 
time step continuity errors : sum local = 2.35744e-09, global = -4.03222e-22, cumulative = -1.98422e-21
ExecutionTime = 6.34 s  ClockTime = 7 s

Time = 0.0007

Courant Number mean: 0.00556497 max: 0.086455
DILUPBiCGStab:  Solving for Ux, Initial residual = 0.0277685, Final residual = 1.62598e-07, No Iterations 5
DILUPBiCGStab:  Solving for Uy, Initial residual = 0.0392331, Final residual = 8.88414e-08, No Iterations 5
DILUPBiCGStab:  Solving for Uz, Initial residual = 0.0673354, Final residual = 2.68958e-07, No Iterations 5
linear solve U 102.926 [ms]
piso setup 13.781 [ms]
 correctNonOrthogonal 
 setRef 
 startSolve 
[OGL LOG][Proc: 0]global_index_init: 0.053 [ms]
[OGL LOG][Proc: 0]p_local_coeffs: call_update: 0 [ms]
[OGL LOG][Proc: 0]p_non_local_coeffs: call_update: 0 [ms]
[OGL LOG][Proc: 0]update_local_matrix_data: 5.009 [ms]
[OGL LOG][Proc: 0]update_non_local_matrix_data: 0.343 [ms]
[OGL LOG][Proc: 0]p_matrix: call_update: 2.073 [ms]
[OGL LOG][Proc: 0]p_rhs: call_update: 0.507 [ms]
[OGL LOG][Proc: 0]init_precond: 0.042 [ms]
[OGL LOG][StoppingCriterion.H:588] Creating stopping criterion with minIter 420 frequency 10
[OGL LOG][Proc: 0]generate_solver: 0.004 [ms]
[OGL LOG][Proc: 0]solve: 170.648 [ms]
[OGL LOG][Proc: 0]copy_x_back: 0.34 [ms]
[OGL LOG][lduLduBase.H:303] 
Statistics:
	Time per iteration: 405 [mu s]
	Time per residual norm calculation: 134.000000 [mu s]
	Time per iteration and DOF: 0.405000 [ns]
	Retrieve results bandwith 2.941000 [GByte/s]
nonehipGKOCG:  Solving for p, Initial residual = 0.0207598, Final residual = 7.87427e-05, No Iterations 421
linear solve p 179.727 [ms]
piso step 184.771 [ms]
 contErrors 
time step continuity errors : sum local = 2.05074e-09, global = -1.9782e-22, cumulative = -2.18204e-21
piso setup 11.854 [ms]
 correctNonOrthogonal 
 setRef 
 startSolve 
[OGL LOG][Proc: 0]global_index_init: 0.038 [ms]
[OGL LOG][Proc: 0]p_local_coeffs: call_update: 0 [ms]
[OGL LOG][Proc: 0]p_non_local_coeffs: call_update: 0 [ms]
[OGL LOG][Proc: 0]update_local_matrix_data: 5.118 [ms]
[OGL LOG][Proc: 0]update_non_local_matrix_data: 0.17 [ms]
[OGL LOG][Proc: 0]p_matrix: call_update: 2.499 [ms]
[OGL LOG][Proc: 0]p_rhs: call_update: 0.516 [ms]
[OGL LOG][Proc: 0]init_precond: 0.046 [ms]
[OGL LOG][StoppingCriterion.H:588] Creating stopping criterion with minIter 252 frequency 10
[OGL LOG][Proc: 0]generate_solver: 0.004 [ms]
[OGL LOG][Proc: 0]solve: 126.817 [ms]
[OGL LOG][Proc: 0]copy_x_back: 0.339 [ms]
[OGL LOG][lduLduBase.H:303] 
Statistics:
	Time per iteration: 421 [mu s]
	Time per residual norm calculation: 128.000000 [mu s]
	Time per iteration and DOF: 0.421000 [ns]
	Retrieve results bandwith 2.949000 [GByte/s]
nonehipGKOCG:  Solving for p, Initial residual = 0.0165021, Final residual = 7.90239e-05, No Iterations 301
linear solve p 136.292 [ms]
piso step 141.212 [ms]
 contErrors 
time step continuity errors : sum local = 1.96011e-09, global = -1.10677e-22, cumulative = -2.29272e-21
ExecutionTime = 6.83 s  ClockTime = 7 s

Time = 0.0008

Courant Number mean: 0.0059623 max: 0.0875193
DILUPBiCGStab:  Solving for Ux, Initial residual = 0.0236242, Final residual = 1.30749e-07, No Iterations 5
DILUPBiCGStab:  Solving for Uy, Initial residual = 0.0331364, Final residual = 7.13817e-08, No Iterations 5
DILUPBiCGStab:  Solving for Uz, Initial residual = 0.0588444, Final residual = 2.20542e-07, No Iterations 5
linear solve U 100.736 [ms]
piso setup 13.071 [ms]
 correctNonOrthogonal 
 setRef 
 startSolve 
[OGL LOG][Proc: 0]global_index_init: 0.009 [ms]
[OGL LOG][Proc: 0]p_local_coeffs: call_update: 0 [ms]
[OGL LOG][Proc: 0]p_non_local_coeffs: call_update: 0 [ms]
[OGL LOG][Proc: 0]update_local_matrix_data: 5.173 [ms]
[OGL LOG][Proc: 0]update_non_local_matrix_data: 0.219 [ms]
[OGL LOG][Proc: 0]p_matrix: call_update: 2.139 [ms]
[OGL LOG][Proc: 0]p_rhs: call_update: 0.519 [ms]
[OGL LOG][Proc: 0]init_precond: 0.044 [ms]
[OGL LOG][StoppingCriterion.H:588] Creating stopping criterion with minIter 180 frequency 10
[OGL LOG][Proc: 0]generate_solver: 0.003 [ms]
[OGL LOG][Proc: 0]solve: 125.439 [ms]
[OGL LOG][Proc: 0]copy_x_back: 0.345 [ms]
[OGL LOG][lduLduBase.H:303] 
Statistics:
	Time per iteration: 416 [mu s]
	Time per residual norm calculation: 135.000000 [mu s]
	Time per iteration and DOF: 0.416000 [ns]
	Retrieve results bandwith 2.898000 [GByte/s]
nonehipGKOCG:  Solving for p, Initial residual = 0.0166471, Final residual = 7.92611e-05, No Iterations 301
linear solve p 134.624 [ms]
piso step 139.445 [ms]
 contErrors 
time step continuity errors : sum local = 2.04265e-09, global = -2.79034e-22, cumulative = -2.57175e-21
piso setup 13.044 [ms]
 correctNonOrthogonal 
 setRef 
 startSolve 
[OGL LOG][Proc: 0]global_index_init: 0.019 [ms]
[OGL LOG][Proc: 0]p_local_coeffs: call_update: 0 [ms]
[OGL LOG][Proc: 0]p_non_local_coeffs: call_update: 0 [ms]
[OGL LOG][Proc: 0]update_local_matrix_data: 5.019 [ms]
[OGL LOG][Proc: 0]update_non_local_matrix_data: 0.548 [ms]
[OGL LOG][Proc: 0]p_matrix: call_update: 2.105 [ms]
[OGL LOG][Proc: 0]p_rhs: call_update: 0.473 [ms]
[OGL LOG][Proc: 0]init_precond: 0.048 [ms]
[OGL LOG][StoppingCriterion.H:588] Creating stopping criterion with minIter 180 frequency 10
[OGL LOG][Proc: 0]generate_solver: 0.003 [ms]
[OGL LOG][Proc: 0]solve: 122.484 [ms]
[OGL LOG][Proc: 0]copy_x_back: 0.338 [ms]
[OGL LOG][lduLduBase.H:303] 
Statistics:
	Time per iteration: 420 [mu s]
	Time per residual norm calculation: 130.000000 [mu s]
	Time per iteration and DOF: 0.420000 [ns]
	Retrieve results bandwith 2.958000 [GByte/s]
nonehipGKOCG:  Solving for p, Initial residual = 0.0133414, Final residual = 8.43106e-05, No Iterations 291
linear solve p 131.772 [ms]
piso step 136.643 [ms]
 contErrors 
time step continuity errors : sum local = 2.11318e-09, global = -3.59338e-22, cumulative = -2.93109e-21
ExecutionTime = 7.25 s  ClockTime = 8 s

Time = 0.0009

Courant Number mean: 0.00631847 max: 0.0883467
DILUPBiCGStab:  Solving for Ux, Initial residual = 0.0205606, Final residual = 1.09907e-07, No Iterations 5
DILUPBiCGStab:  Solving for Uy, Initial residual = 0.0286496, Final residual = 5.97128e-08, No Iterations 5
DILUPBiCGStab:  Solving for Uz, Initial residual = 0.0519918, Final residual = 1.80526e-07, No Iterations 5
linear solve U 107.161 [ms]
piso setup 18.7 [ms]
 correctNonOrthogonal 
 setRef 
 startSolve 
[OGL LOG][Proc: 0]global_index_init: 0.057 [ms]
[OGL LOG][Proc: 0]p_local_coeffs: call_update: 0 [ms]
[OGL LOG][Proc: 0]p_non_local_coeffs: call_update: 0 [ms]
[OGL LOG][Proc: 0]update_local_matrix_data: 5.01 [ms]
[OGL LOG][Proc: 0]update_non_local_matrix_data: 3.298 [ms]
[OGL LOG][Proc: 0]p_matrix: call_update: 2.221 [ms]
[OGL LOG][Proc: 0]p_rhs: call_update: 0.423 [ms]
[OGL LOG][Proc: 0]init_precond: 0.045 [ms]
[OGL LOG][StoppingCriterion.H:588] Creating stopping criterion with minIter 174 frequency 10
[OGL LOG][Proc: 0]generate_solver: 0.004 [ms]
[OGL LOG][Proc: 0]solve: 122.261 [ms]
[OGL LOG][Proc: 0]copy_x_back: 0.339 [ms]
[OGL LOG][lduLduBase.H:303] 
Statistics:
	Time per iteration: 420 [mu s]
	Time per residual norm calculation: 134.000000 [mu s]
	Time per iteration and DOF: 0.420000 [ns]
	Retrieve results bandwith 2.949000 [GByte/s]
nonehipGKOCG:  Solving for p, Initial residual = 0.013841, Final residual = 8.99895e-05, No Iterations 291
linear solve p 134.524 [ms]
piso step 140.086 [ms]
 contErrors 
time step continuity errors : sum local = 2.33451e-09, global = -2.15339e-21, cumulative = -5.08448e-21
piso setup 15.463 [ms]
 correctNonOrthogonal 
 setRef 
 startSolve 
[OGL LOG][Proc: 0]global_index_init: 0.019 [ms]
[OGL LOG][Proc: 0]p_local_coeffs: call_update: 0 [ms]
[OGL LOG][Proc: 0]p_non_local_coeffs: call_update: 0 [ms]
[OGL LOG][Proc: 0]update_local_matrix_data: 5.103 [ms]
[OGL LOG][Proc: 0]update_non_local_matrix_data: 0.171 [ms]
[OGL LOG][Proc: 0]p_matrix: call_update: 2.182 [ms]
[OGL LOG][Proc: 0]p_rhs: call_update: 5.541 [ms]
[OGL LOG][Proc: 0]init_precond: 0.044 [ms]
[OGL LOG][StoppingCriterion.H:588] Creating stopping criterion with minIter 174 frequency 10
[OGL LOG][Proc: 0]generate_solver: 0.003 [ms]
[OGL LOG][Proc: 0]solve: 148.013 [ms]
[OGL LOG][Proc: 0]copy_x_back: 0.542 [ms]
[OGL LOG][lduLduBase.H:303] 
Statistics:
	Time per iteration: 508 [mu s]
	Time per residual norm calculation: 135.000000 [mu s]
	Time per iteration and DOF: 0.508000 [ns]
	Retrieve results bandwith 1.845000 [GByte/s]
nonehipGKOCG:  Solving for p, Initial residual = 0.0111536, Final residual = 6.5078e-05, No Iterations 291
linear solve p 162.766 [ms]
piso step 169.6 [ms]
 contErrors 
time step continuity errors : sum local = 1.67927e-09, global = 1.47904e-21, cumulative = -3.60544e-21
ExecutionTime = 7.73 s  ClockTime = 8 s

Time = 0.001

Courant Number mean: 0.00664438 max: 0.0890141
DILUPBiCGStab:  Solving for Ux, Initial residual = 0.0181844, Final residual = 9.44108e-08, No Iterations 5
DILUPBiCGStab:  Solving for Uy, Initial residual = 0.0252124, Final residual = 5.13983e-08, No Iterations 5
DILUPBiCGStab:  Solving for Uz, Initial residual = 0.0465021, Final residual = 1.48245e-07, No Iterations 5
linear solve U 101.125 [ms]
piso setup 13.53 [ms]
 correctNonOrthogonal 
 setRef 
 startSolve 
[OGL LOG][Proc: 0]global_index_init: 0.018 [ms]
[OGL LOG][Proc: 0]p_local_coeffs: call_update: 0 [ms]
[OGL LOG][Proc: 0]p_non_local_coeffs: call_update: 0 [ms]
[OGL LOG][Proc: 0]update_local_matrix_data: 6.851 [ms]
[OGL LOG][Proc: 0]update_non_local_matrix_data: 1.759 [ms]
[OGL LOG][Proc: 0]p_matrix: call_update: 1.757 [ms]
[OGL LOG][Proc: 0]p_rhs: call_update: 0.403 [ms]
[OGL LOG][Proc: 0]init_precond: 0.049 [ms]
[OGL LOG][StoppingCriterion.H:588] Creating stopping criterion with minIter 174 frequency 10
[OGL LOG][Proc: 0]generate_solver: 0.004 [ms]
[OGL LOG][Proc: 0]solve: 123.519 [ms]
[OGL LOG][Proc: 0]copy_x_back: 0.338 [ms]
[OGL LOG][lduLduBase.H:303] 
Statistics:
	Time per iteration: 424 [mu s]
	Time per residual norm calculation: 128.000000 [mu s]
	Time per iteration and DOF: 0.424000 [ns]
	Retrieve results bandwith 2.958000 [GByte/s]
nonehipGKOCG:  Solving for p, Initial residual = 0.0118228, Final residual = 7.81231e-05, No Iterations 291
linear solve p 135.456 [ms]
piso step 140.407 [ms]
 contErrors 
time step continuity errors : sum local = 2.05861e-09, global = -7.53696e-22, cumulative = -4.35914e-21
piso setup 12.606 [ms]
 correctNonOrthogonal 
 setRef 
 startSolve 
[OGL LOG][Proc: 0]global_index_init: 0.02 [ms]
[OGL LOG][Proc: 0]p_local_coeffs: call_update: 0 [ms]
[OGL LOG][Proc: 0]p_non_local_coeffs: call_update: 0 [ms]
[OGL LOG][Proc: 0]update_local_matrix_data: 5.215 [ms]
[OGL LOG][Proc: 0]update_non_local_matrix_data: 0.303 [ms]
[OGL LOG][Proc: 0]p_matrix: call_update: 2.23 [ms]
[OGL LOG][Proc: 0]p_rhs: call_update: 0.504 [ms]
[OGL LOG][Proc: 0]init_precond: 0.042 [ms]
[OGL LOG][StoppingCriterion.H:588] Creating stopping criterion with minIter 174 frequency 10
[OGL LOG][Proc: 0]generate_solver: 0.004 [ms]
[OGL LOG][Proc: 0]solve: 120.414 [ms]
[OGL LOG][Proc: 0]copy_x_back: 0.341 [ms]
[OGL LOG][lduLduBase.H:303] 
Statistics:
	Time per iteration: 428 [mu s]
	Time per residual norm calculation: 124.000000 [mu s]
	Time per iteration and DOF: 0.428000 [ns]
	Retrieve results bandwith 2.932000 [GByte/s]
nonehipGKOCG:  Solving for p, Initial residual = 0.00956531, Final residual = 9.43503e-05, No Iterations 281
linear solve p 129.815 [ms]
piso step 134.731 [ms]
 contErrors 
time step continuity errors : sum local = 2.41259e-09, global = -2.47252e-21, cumulative = -6.83165e-21
ExecutionTime = 8.16 s  ClockTime = 8 s

Time = 0.0011

Courant Number mean: 0.00694533 max: 0.0895673
DILUPBiCGStab:  Solving for Ux, Initial residual = 0.016298, Final residual = 8.23133e-08, No Iterations 5
DILUPBiCGStab:  Solving for Uy, Initial residual = 0.0224933, Final residual = 4.516e-08, No Iterations 5
DILUPBiCGStab:  Solving for Uz, Initial residual = 0.0420277, Final residual = 1.22458e-07, No Iterations 5
linear solve U 101.047 [ms]
piso setup 12.949 [ms]
 correctNonOrthogonal 
 setRef 
 startSolve 
[OGL LOG][Proc: 0]global_index_init: 0.016 [ms]
[OGL LOG][Proc: 0]p_local_coeffs: call_update: 0 [ms]
[OGL LOG][Proc: 0]p_non_local_coeffs: call_update: 0 [ms]
[OGL LOG][Proc: 0]update_local_matrix_data: 5.356 [ms]
[OGL LOG][Proc: 0]update_non_local_matrix_data: 0.242 [ms]
[OGL LOG][Proc: 0]p_matrix: call_update: 4.482 [ms]
[OGL LOG][Proc: 0]p_rhs: call_update: 1.552 [ms]
[OGL LOG][Proc: 0]init_precond: 0.046 [ms]
[OGL LOG][StoppingCriterion.H:588] Creating stopping criterion with minIter 168 frequency 10
[OGL LOG][Proc: 0]generate_solver: 0.003 [ms]
[OGL LOG][Proc: 0]solve: 126.321 [ms]
[OGL LOG][Proc: 0]copy_x_back: 0.339 [ms]
[OGL LOG][lduLduBase.H:303] 
Statistics:
	Time per iteration: 434 [mu s]
	Time per residual norm calculation: 129.000000 [mu s]
	Time per iteration and DOF: 0.434000 [ns]
	Retrieve results bandwith 2.949000 [GByte/s]
nonehipGKOCG:  Solving for p, Initial residual = 0.0102522, Final residual = 6.63562e-05, No Iterations 291
linear solve p 139.11 [ms]
piso step 143.869 [ms]
 contErrors 
time step continuity errors : sum local = 1.78806e-09, global = -7.63695e-22, cumulative = -7.59535e-21
piso setup 11.627 [ms]
 correctNonOrthogonal 
 setRef 
 startSolve 
[OGL LOG][Proc: 0]global_index_init: 0.019 [ms]
[OGL LOG][Proc: 0]p_local_coeffs: call_update: 0 [ms]
[OGL LOG][Proc: 0]p_non_local_coeffs: call_update: 0 [ms]
[OGL LOG][Proc: 0]update_local_matrix_data: 5.11 [ms]
[OGL LOG][Proc: 0]update_non_local_matrix_data: 0.174 [ms]
[OGL LOG][Proc: 0]p_matrix: call_update: 2.43 [ms]
[OGL LOG][Proc: 0]p_rhs: call_update: 0.508 [ms]
[OGL LOG][Proc: 0]init_precond: 0.043 [ms]
[OGL LOG][StoppingCriterion.H:588] Creating stopping criterion with minIter 174 frequency 10
[OGL LOG][Proc: 0]generate_solver: 0.003 [ms]
[OGL LOG][Proc: 0]solve: 120.323 [ms]
[OGL LOG][Proc: 0]copy_x_back: 0.347 [ms]
[OGL LOG][lduLduBase.H:303] 
Statistics:
	Time per iteration: 428 [mu s]
	Time per residual norm calculation: 130.000000 [mu s]
	Time per iteration and DOF: 0.428000 [ns]
	Retrieve results bandwith 2.881000 [GByte/s]
nonehipGKOCG:  Solving for p, Initial residual = 0.00829097, Final residual = 8.1634e-05, No Iterations 281
linear solve p 129.687 [ms]
piso step 134.528 [ms]
 contErrors 
time step continuity errors : sum local = 2.12441e-09, global = -2.8575e-22, cumulative = -7.8811e-21
ExecutionTime = 8.59 s  ClockTime = 9 s

Time = 0.0012

Courant Number mean: 0.0072238 max: 0.0900356
DILUPBiCGStab:  Solving for Ux, Initial residual = 0.0147478, Final residual = 7.26046e-08, No Iterations 5
DILUPBiCGStab:  Solving for Uy, Initial residual = 0.0202889, Final residual = 4.02708e-08, No Iterations 5
DILUPBiCGStab:  Solving for Uz, Initial residual = 0.0382998, Final residual = 1.02243e-07, No Iterations 5
linear solve U 106.574 [ms]
piso setup 15.534 [ms]
 correctNonOrthogonal 
 setRef 
 startSolve 
[OGL LOG][Proc: 0]global_index_init: 0.048 [ms]
[OGL LOG][Proc: 0]p_local_coeffs: call_update: 0 [ms]
[OGL LOG][Proc: 0]p_non_local_coeffs: call_update: 0 [ms]
[OGL LOG][Proc: 0]update_local_matrix_data: 5.026 [ms]
[OGL LOG][Proc: 0]update_non_local_matrix_data: 0.202 [ms]
[OGL LOG][Proc: 0]p_matrix: call_update: 2.165 [ms]
[OGL LOG][Proc: 0]p_rhs: call_update: 1.561 [ms]
[OGL LOG][Proc: 0]init_precond: 0.043 [ms]
[OGL LOG][StoppingCriterion.H:588] Creating stopping criterion with minIter 168 frequency 10
[OGL LOG][Proc: 0]generate_solver: 0.004 [ms]
[OGL LOG][Proc: 0]solve: 120.315 [ms]
[OGL LOG][Proc: 0]copy_x_back: 0.344 [ms]
[OGL LOG][lduLduBase.H:303] 
Statistics:
	Time per iteration: 428 [mu s]
	Time per residual norm calculation: 125.000000 [mu s]
	Time per iteration and DOF: 0.428000 [ns]
	Retrieve results bandwith 2.906000 [GByte/s]
nonehipGKOCG:  Solving for p, Initial residual = 0.00896461, Final residual = 8.96344e-05, No Iterations 281
linear solve p 130.4 [ms]
piso step 135.683 [ms]
 contErrors 
time step continuity errors : sum local = 2.36783e-09, global = -7.18696e-22, cumulative = -8.59979e-21
piso setup 13.539 [ms]
 correctNonOrthogonal 
 setRef 
 startSolve 
[OGL LOG][Proc: 0]global_index_init: 0.026 [ms]
[OGL LOG][Proc: 0]p_local_coeffs: call_update: 0 [ms]
[OGL LOG][Proc: 0]p_non_local_coeffs: call_update: 0 [ms]
[OGL LOG][Proc: 0]update_local_matrix_data: 5.1 [ms]
[OGL LOG][Proc: 0]update_non_local_matrix_data: 0.18 [ms]
[OGL LOG][Proc: 0]p_matrix: call_update: 2.387 [ms]
[OGL LOG][Proc: 0]p_rhs: call_update: 0.527 [ms]
[OGL LOG][Proc: 0]init_precond: 0.043 [ms]
[OGL LOG][StoppingCriterion.H:588] Creating stopping criterion with minIter 168 frequency 10
[OGL LOG][Proc: 0]generate_solver: 0.003 [ms]
[OGL LOG][Proc: 0]solve: 118.06 [ms]
[OGL LOG][Proc: 0]copy_x_back: 0.34 [ms]
[OGL LOG][lduLduBase.H:303] 
Statistics:
	Time per iteration: 420 [mu s]
	Time per residual norm calculation: 130.000000 [mu s]
	Time per iteration and DOF: 0.420000 [ns]
	Retrieve results bandwith 2.941000 [GByte/s]
nonehipGKOCG:  Solving for p, Initial residual = 0.00730906, Final residual = 6.81097e-05, No Iterations 281
linear solve p 127.412 [ms]
piso step 133.572 [ms]
 contErrors 
time step continuity errors : sum local = 1.8112e-09, global = 3.07587e-22, cumulative = -8.2922e-21
ExecutionTime = 9.02 s  ClockTime = 9 s

Time = 0.0013

Courant Number mean: 0.00748302 max: 0.0904387
DILUPBiCGStab:  Solving for Ux, Initial residual = 0.0134666, Final residual = 6.47275e-08, No Iterations 5
DILUPBiCGStab:  Solving for Uy, Initial residual = 0.0184656, Final residual = 3.63071e-08, No Iterations 5
DILUPBiCGStab:  Solving for Uz, Initial residual = 0.0351613, Final residual = 8.66718e-08, No Iterations 5
linear solve U 99.93 [ms]
piso setup 12.994 [ms]
 correctNonOrthogonal 
 setRef 
 startSolve 
[OGL LOG][Proc: 0]global_index_init: 0.023 [ms]
[OGL LOG][Proc: 0]p_local_coeffs: call_update: 0 [ms]
[OGL LOG][Proc: 0]p_non_local_coeffs: call_update: 0 [ms]
[OGL LOG][Proc: 0]update_local_matrix_data: 5.509 [ms]
[OGL LOG][Proc: 0]update_non_local_matrix_data: 0.27 [ms]
[OGL LOG][Proc: 0]p_matrix: call_update: 2.511 [ms]
[OGL LOG][Proc: 0]p_rhs: call_update: 0.545 [ms]
[OGL LOG][Proc: 0]init_precond: 0.048 [ms]
[OGL LOG][StoppingCriterion.H:588] Creating stopping criterion with minIter 168 frequency 10
[OGL LOG][Proc: 0]generate_solver: 0.003 [ms]
[OGL LOG][Proc: 0]solve: 118.402 [ms]
[OGL LOG][Proc: 0]copy_x_back: 0.354 [ms]
[OGL LOG][lduLduBase.H:303] 
Statistics:
	Time per iteration: 421 [mu s]
	Time per residual norm calculation: 129.000000 [mu s]
	Time per iteration and DOF: 0.421000 [ns]
	Retrieve results bandwith 2.824000 [GByte/s]
nonehipGKOCG:  Solving for p, Initial residual = 0.00804708, Final residual = 8.42162e-05, No Iterations 281
linear solve p 128.349 [ms]
piso step 133.192 [ms]
 contErrors 
time step continuity errors : sum local = 2.24802e-09, global = -5.85747e-22, cumulative = -8.87795e-21
piso setup 12.004 [ms]
 correctNonOrthogonal 
 setRef 
 startSolve 
[OGL LOG][Proc: 0]global_index_init: 0.016 [ms]
[OGL LOG][Proc: 0]p_local_coeffs: call_update: 0 [ms]
[OGL LOG][Proc: 0]p_non_local_coeffs: call_update: 0 [ms]
[OGL LOG][Proc: 0]update_local_matrix_data: 5.183 [ms]
[OGL LOG][Proc: 0]update_non_local_matrix_data: 0.171 [ms]
[OGL LOG][Proc: 0]p_matrix: call_update: 2.295 [ms]
[OGL LOG][Proc: 0]p_rhs: call_update: 0.443 [ms]
[OGL LOG][Proc: 0]init_precond: 0.047 [ms]
[OGL LOG][StoppingCriterion.H:588] Creating stopping criterion with minIter 168 frequency 10
[OGL LOG][Proc: 0]generate_solver: 0.004 [ms]
[OGL LOG][Proc: 0]solve: 115.556 [ms]
[OGL LOG][Proc: 0]copy_x_back: 0.334 [ms]
[OGL LOG][lduLduBase.H:303] 
Statistics:
	Time per iteration: 426 [mu s]
	Time per residual norm calculation: 134.000000 [mu s]
	Time per iteration and DOF: 0.426000 [ns]
	Retrieve results bandwith 2.994000 [GByte/s]
nonehipGKOCG:  Solving for p, Initial residual = 0.00658213, Final residual = 9.96138e-05, No Iterations 271
linear solve p 124.793 [ms]
piso step 129.657 [ms]
 contErrors 
time step continuity errors : sum local = 2.59845e-09, global = -1.3537e-21, cumulative = -1.02317e-20
ExecutionTime = 9.43 s  ClockTime = 10 s

Time = 0.0014

Courant Number mean: 0.00772784 max: 0.0907903
DILUPBiCGStab:  Solving for Ux, Initial residual = 0.0123791, Final residual = 5.82099e-08, No Iterations 5
DILUPBiCGStab:  Solving for Uy, Initial residual = 0.0169328, Final residual = 3.30149e-08, No Iterations 5
DILUPBiCGStab:  Solving for Uz, Initial residual = 0.0324769, Final residual = 7.49153e-08, No Iterations 5
linear solve U 103.163 [ms]
piso setup 12.138 [ms]
 correctNonOrthogonal 
 setRef 
 startSolve 
[OGL LOG][Proc: 0]global_index_init: 0.008 [ms]
[OGL LOG][Proc: 0]p_local_coeffs: call_update: 0 [ms]
[OGL LOG][Proc: 0]p_non_local_coeffs: call_update: 0 [ms]
[OGL LOG][Proc: 0]update_local_matrix_data: 4.988 [ms]
[OGL LOG][Proc: 0]update_non_local_matrix_data: 0.214 [ms]
[OGL LOG][Proc: 0]p_matrix: call_update: 2.236 [ms]
[OGL LOG][Proc: 0]p_rhs: call_update: 0.47 [ms]
[OGL LOG][Proc: 0]init_precond: 0.045 [ms]
[OGL LOG][StoppingCriterion.H:588] Creating stopping criterion with minIter 162 frequency 10
[OGL LOG][Proc: 0]generate_solver: 0.003 [ms]
[OGL LOG][Proc: 0]solve: 117.437 [ms]
[OGL LOG][Proc: 0]copy_x_back: 0.338 [ms]
[OGL LOG][lduLduBase.H:303] 
Statistics:
	Time per iteration: 417 [mu s]
	Time per residual norm calculation: 126.000000 [mu s]
	Time per iteration and DOF: 0.417000 [ns]
	Retrieve results bandwith 2.958000 [GByte/s]
nonehipGKOCG:  Solving for p, Initial residual = 0.00723318, Final residual = 7.14876e-05, No Iterations 281
linear solve p 126.443 [ms]
piso step 133.125 [ms]
 contErrors 
time step continuity errors : sum local = 1.94638e-09, global = 8.71342e-22, cumulative = -9.36031e-21
piso setup 12.594 [ms]
 correctNonOrthogonal 
 setRef 
 startSolve 
[OGL LOG][Proc: 0]global_index_init: 0.535 [ms]
[OGL LOG][Proc: 0]p_local_coeffs: call_update: 0 [ms]
[OGL LOG][Proc: 0]p_non_local_coeffs: call_update: 0 [ms]
[OGL LOG][Proc: 0]update_local_matrix_data: 5.017 [ms]
[OGL LOG][Proc: 0]update_non_local_matrix_data: 5.21 [ms]
[OGL LOG][Proc: 0]p_matrix: call_update: 2.354 [ms]
[OGL LOG][Proc: 0]p_rhs: call_update: 0.407 [ms]
[OGL LOG][Proc: 0]init_precond: 0.046 [ms]
[OGL LOG][StoppingCriterion.H:588] Creating stopping criterion with minIter 168 frequency 10
[OGL LOG][Proc: 0]generate_solver: 0.004 [ms]
[OGL LOG][Proc: 0]solve: 114.551 [ms]
[OGL LOG][Proc: 0]copy_x_back: 0.337 [ms]
[OGL LOG][lduLduBase.H:303] 
Statistics:
	Time per iteration: 422 [mu s]
	Time per residual norm calculation: 128.000000 [mu s]
	Time per iteration and DOF: 0.422000 [ns]
	Retrieve results bandwith 2.967000 [GByte/s]
nonehipGKOCG:  Solving for p, Initial residual = 0.0059026, Final residual = 8.85946e-05, No Iterations 271
linear solve p 129.346 [ms]
piso step 138.341 [ms]
 contErrors 
time step continuity errors : sum local = 2.3424e-09, global = -1.56321e-21, cumulative = -1.09235e-20
ExecutionTime = 9.85 s  ClockTime = 10 s

Time = 0.0015

Courant Number mean: 0.00795862 max: 0.0911006
DILUPBiCGStab:  Solving for Ux, Initial residual = 0.0114467, Final residual = 5.27556e-08, No Iterations 5
DILUPBiCGStab:  Solving for Uy, Initial residual = 0.0156262, Final residual = 3.02517e-08, No Iterations 5
DILUPBiCGStab:  Solving for Uz, Initial residual = 0.0301549, Final residual = 6.59691e-08, No Iterations 5
linear solve U 105.917 [ms]
piso setup 13.264 [ms]
 correctNonOrthogonal 
 setRef 
 startSolve 
[OGL LOG][Proc: 0]global_index_init: 0.039 [ms]
[OGL LOG][Proc: 0]p_local_coeffs: call_update: 0 [ms]
[OGL LOG][Proc: 0]p_non_local_coeffs: call_update: 0 [ms]
[OGL LOG][Proc: 0]update_local_matrix_data: 5.03 [ms]
[OGL LOG][Proc: 0]update_non_local_matrix_data: 0.165 [ms]
[OGL LOG][Proc: 0]p_matrix: call_update: 2.168 [ms]
[OGL LOG][Proc: 0]p_rhs: call_update: 1.351 [ms]
[OGL LOG][Proc: 0]init_precond: 0.045 [ms]
[OGL LOG][StoppingCriterion.H:588] Creating stopping criterion with minIter 162 frequency 10
[OGL LOG][Proc: 0]generate_solver: 0.004 [ms]
[OGL LOG][Proc: 0]solve: 145.069 [ms]
[OGL LOG][Proc: 0]copy_x_back: 0.437 [ms]
[OGL LOG][lduLduBase.H:303] 
Statistics:
	Time per iteration: 516 [mu s]
	Time per residual norm calculation: 139.000000 [mu s]
	Time per iteration and DOF: 0.516000 [ns]
	Retrieve results bandwith 2.288000 [GByte/s]
nonehipGKOCG:  Solving for p, Initial residual = 0.00650445, Final residual = 6.64167e-05, No Iterations 281
linear solve p 155.311 [ms]
piso step 161.478 [ms]
 contErrors 
time step continuity errors : sum local = 1.8307e-09, global = -1.20459e-21, cumulative = -1.21281e-20
piso setup 15.196 [ms]
 correctNonOrthogonal 
 setRef 
 startSolve 
[OGL LOG][Proc: 0]global_index_init: 0.015 [ms]
[OGL LOG][Proc: 0]p_local_coeffs: call_update: 0 [ms]
[OGL LOG][Proc: 0]p_non_local_coeffs: call_update: 0 [ms]
[OGL LOG][Proc: 0]update_local_matrix_data: 6.922 [ms]
[OGL LOG][Proc: 0]update_non_local_matrix_data: 0.27 [ms]
[OGL LOG][Proc: 0]p_matrix: call_update: 1.891 [ms]
[OGL LOG][Proc: 0]p_rhs: call_update: 0.695 [ms]
[OGL LOG][Proc: 0]init_precond: 0.043 [ms]
[OGL LOG][StoppingCriterion.H:588] Creating stopping criterion with minIter 168 frequency 10
[OGL LOG][Proc: 0]generate_solver: 0.003 [ms]
[OGL LOG][Proc: 0]solve: 121.698 [ms]
[OGL LOG][Proc: 0]copy_x_back: 0.342 [ms]
[OGL LOG][lduLduBase.H:303] 
Statistics:
	Time per iteration: 449 [mu s]
	Time per residual norm calculation: 132.000000 [mu s]
	Time per iteration and DOF: 0.449000 [ns]
	Retrieve results bandwith 2.923000 [GByte/s]
nonehipGKOCG:  Solving for p, Initial residual = 0.00533347, Final residual = 7.98108e-05, No Iterations 271
linear solve p 133.3 [ms]
piso step 138.944 [ms]
 contErrors 
time step continuity errors : sum local = 2.13851e-09, global = 8.56173e-22, cumulative = -1.12719e-20
ExecutionTime = 10.33 s  ClockTime = 11 s

Time = 0.0016

Courant Number mean: 0.00817649 max: 0.091377
DILUPBiCGStab:  Solving for Ux, Initial residual = 0.0106403, Final residual = 4.81162e-08, No Iterations 5
DILUPBiCGStab:  Solving for Uy, Initial residual = 0.0144993, Final residual = 2.79038e-08, No Iterations 5
DILUPBiCGStab:  Solving for Uz, Initial residual = 0.0281303, Final residual = 5.90999e-08, No Iterations 5
linear solve U 103.778 [ms]
piso setup 12.594 [ms]
 correctNonOrthogonal 
 setRef 
 startSolve 
[OGL LOG][Proc: 0]global_index_init: 0.021 [ms]
[OGL LOG][Proc: 0]p_local_coeffs: call_update: 0 [ms]
[OGL LOG][Proc: 0]p_non_local_coeffs: call_update: 0 [ms]
[OGL LOG][Proc: 0]update_local_matrix_data: 5.369 [ms]
[OGL LOG][Proc: 0]update_non_local_matrix_data: 3.677 [ms]
[OGL LOG][Proc: 0]p_matrix: call_update: 2.232 [ms]
[OGL LOG][Proc: 0]p_rhs: call_update: 0.439 [ms]
[OGL LOG][Proc: 0]init_precond: 0.045 [ms]
[OGL LOG][StoppingCriterion.H:588] Creating stopping criterion with minIter 162 frequency 10
[OGL LOG][Proc: 0]generate_solver: 0.003 [ms]
[OGL LOG][Proc: 0]solve: 113.496 [ms]
[OGL LOG][Proc: 0]copy_x_back: 0.347 [ms]
[OGL LOG][lduLduBase.H:303] 
Statistics:
	Time per iteration: 418 [mu s]
	Time per residual norm calculation: 130.000000 [mu s]
	Time per iteration and DOF: 0.418000 [ns]
	Retrieve results bandwith 2.881000 [GByte/s]
nonehipGKOCG:  Solving for p, Initial residual = 0.00592013, Final residual = 9.04128e-05, No Iterations 271
linear solve p 126.34 [ms]
piso step 132.142 [ms]
 contErrors 
time step continuity errors : sum local = 2.43003e-09, global = -2.06986e-21, cumulative = -1.33418e-20
piso setup 13.906 [ms]
 correctNonOrthogonal 
 setRef 
 startSolve 
[OGL LOG][Proc: 0]global_index_init: 0.025 [ms]
[OGL LOG][Proc: 0]p_local_coeffs: call_update: 0 [ms]
[OGL LOG][Proc: 0]p_non_local_coeffs: call_update: 0 [ms]
[OGL LOG][Proc: 0]update_local_matrix_data: 5.295 [ms]
[OGL LOG][Proc: 0]update_non_local_matrix_data: 0.173 [ms]
[OGL LOG][Proc: 0]p_matrix: call_update: 2.191 [ms]
[OGL LOG][Proc: 0]p_rhs: call_update: 0.501 [ms]
[OGL LOG][Proc: 0]init_precond: 0.044 [ms]
[OGL LOG][StoppingCriterion.H:588] Creating stopping criterion with minIter 162 frequency 10
[OGL LOG][Proc: 0]generate_solver: 0.003 [ms]
[OGL LOG][Proc: 0]solve: 114.529 [ms]
[OGL LOG][Proc: 0]copy_x_back: 0.347 [ms]
[OGL LOG][lduLduBase.H:303] 
Statistics:
	Time per iteration: 422 [mu s]
	Time per residual norm calculation: 128.000000 [mu s]
	Time per iteration and DOF: 0.422000 [ns]
	Retrieve results bandwith 2.881000 [GByte/s]
nonehipGKOCG:  Solving for p, Initial residual = 0.00488505, Final residual = 6.98136e-05, No Iterations 271
linear solve p 123.86 [ms]
piso step 129.115 [ms]
 contErrors 
time step continuity errors : sum local = 1.90271e-09, global = -1.95167e-21, cumulative = -1.52935e-20
ExecutionTime = 10.75 s  ClockTime = 11 s

Time = 0.0017

Courant Number mean: 0.00838249 max: 0.0916252
DILUPBiCGStab:  Solving for Ux, Initial residual = 0.00993234, Final residual = 4.41299e-08, No Iterations 5
DILUPBiCGStab:  Solving for Uy, Initial residual = 0.0135176, Final residual = 2.58976e-08, No Iterations 5
DILUPBiCGStab:  Solving for Uz, Initial residual = 0.0263494, Final residual = 5.37941e-08, No Iterations 5
linear solve U 101.106 [ms]
piso setup 12.311 [ms]
 correctNonOrthogonal 
 setRef 
 startSolve 
[OGL LOG][Proc: 0]global_index_init: 0.021 [ms]
[OGL LOG][Proc: 0]p_local_coeffs: call_update: 0 [ms]
[OGL LOG][Proc: 0]p_non_local_coeffs: call_update: 0 [ms]
[OGL LOG][Proc: 0]update_local_matrix_data: 4.984 [ms]
[OGL LOG][Proc: 0]update_non_local_matrix_data: 0.292 [ms]
[OGL LOG][Proc: 0]p_matrix: call_update: 2.498 [ms]
[OGL LOG][Proc: 0]p_rhs: call_update: 0.511 [ms]
[OGL LOG][Proc: 0]init_precond: 0.045 [ms]
[OGL LOG][StoppingCriterion.H:588] Creating stopping criterion with minIter 162 frequency 10
[OGL LOG][Proc: 0]generate_solver: 0.003 [ms]
[OGL LOG][Proc: 0]solve: 115.765 [ms]
[OGL LOG][Proc: 0]copy_x_back: 0.335 [ms]
[OGL LOG][lduLduBase.H:303] 
Statistics:
	Time per iteration: 427 [mu s]
	Time per residual norm calculation: 129.000000 [mu s]
	Time per iteration and DOF: 0.427000 [ns]
	Retrieve results bandwith 2.985000 [GByte/s]
nonehipGKOCG:  Solving for p, Initial residual = 0.00549683, Final residual = 9.19665e-05, No Iterations 271
linear solve p 125.18 [ms]
piso step 130.457 [ms]
 contErrors 
time step continuity errors : sum local = 2.47707e-09, global = -1.3842e-21, cumulative = -1.66777e-20
piso setup 12.841 [ms]
 correctNonOrthogonal 
 setRef 
 startSolve 
[OGL LOG][Proc: 0]global_index_init: 0.027 [ms]
[OGL LOG][Proc: 0]p_local_coeffs: call_update: 0 [ms]
[OGL LOG][Proc: 0]p_non_local_coeffs: call_update: 0 [ms]
[OGL LOG][Proc: 0]update_local_matrix_data: 5 [ms]
[OGL LOG][Proc: 0]update_non_local_matrix_data: 0.264 [ms]
[OGL LOG][Proc: 0]p_matrix: call_update: 2.404 [ms]
[OGL LOG][Proc: 0]p_rhs: call_update: 0.507 [ms]
[OGL LOG][Proc: 0]init_precond: 0.045 [ms]
[OGL LOG][StoppingCriterion.H:588] Creating stopping criterion with minIter 162 frequency 10
[OGL LOG][Proc: 0]generate_solver: 0.003 [ms]
[OGL LOG][Proc: 0]solve: 115.813 [ms]
[OGL LOG][Proc: 0]copy_x_back: 0.34 [ms]
[OGL LOG][lduLduBase.H:303] 
Statistics:
	Time per iteration: 427 [mu s]
	Time per residual norm calculation: 131.000000 [mu s]
	Time per iteration and DOF: 0.427000 [ns]
	Retrieve results bandwith 2.941000 [GByte/s]
nonehipGKOCG:  Solving for p, Initial residual = 0.00454735, Final residual = 6.28345e-05, No Iterations 271
linear solve p 125.143 [ms]
piso step 129.912 [ms]
 contErrors 
time step continuity errors : sum local = 1.73975e-09, global = 4.7385e-22, cumulative = -1.62038e-20
ExecutionTime = 11.16 s  ClockTime = 11 s

Time = 0.0018

Courant Number mean: 0.00857956 max: 0.0918497
DILUPBiCGStab:  Solving for Ux, Initial residual = 0.00931086, Final residual = 4.06858e-08, No Iterations 5
DILUPBiCGStab:  Solving for Uy, Initial residual = 0.0126547, Final residual = 2.41713e-08, No Iterations 5
DILUPBiCGStab:  Solving for Uz, Initial residual = 0.0247695, Final residual = 4.95486e-08, No Iterations 5
linear solve U 104.282 [ms]
piso setup 13.64 [ms]
 correctNonOrthogonal 
 setRef 
 startSolve 
[OGL LOG][Proc: 0]global_index_init: 0.01 [ms]
[OGL LOG][Proc: 0]p_local_coeffs: call_update: 0 [ms]
[OGL LOG][Proc: 0]p_non_local_coeffs: call_update: 0 [ms]
[OGL LOG][Proc: 0]update_local_matrix_data: 5.243 [ms]
[OGL LOG][Proc: 0]update_non_local_matrix_data: 0.284 [ms]
[OGL LOG][Proc: 0]p_matrix: call_update: 2.15 [ms]
[OGL LOG][Proc: 0]p_rhs: call_update: 0.513 [ms]
[OGL LOG][Proc: 0]init_precond: 0.044 [ms]
[OGL LOG][StoppingCriterion.H:588] Creating stopping criterion with minIter 162 frequency 10
[OGL LOG][Proc: 0]generate_solver: 0.003 [ms]
[OGL LOG][Proc: 0]solve: 113.448 [ms]
[OGL LOG][Proc: 0]copy_x_back: 0.341 [ms]
[OGL LOG][lduLduBase.H:303] 
Statistics:
	Time per iteration: 418 [mu s]
	Time per residual norm calculation: 127.000000 [mu s]
	Time per iteration and DOF: 0.418000 [ns]
	Retrieve results bandwith 2.932000 [GByte/s]
nonehipGKOCG:  Solving for p, Initial residual = 0.00504672, Final residual = 8.85291e-05, No Iterations 271
linear solve p 122.758 [ms]
piso step 127.979 [ms]
 contErrors 
time step continuity errors : sum local = 2.39957e-09, global = -6.45614e-22, cumulative = -1.68494e-20
piso setup 12.037 [ms]
 correctNonOrthogonal 
 setRef 
 startSolve 
[OGL LOG][Proc: 0]global_index_init: 0.027 [ms]
[OGL LOG][Proc: 0]p_local_coeffs: call_update: 0 [ms]
[OGL LOG][Proc: 0]p_non_local_coeffs: call_update: 0 [ms]
[OGL LOG][Proc: 0]update_local_matrix_data: 5.083 [ms]
[OGL LOG][Proc: 0]update_non_local_matrix_data: 0.186 [ms]
[OGL LOG][Proc: 0]p_matrix: call_update: 2.374 [ms]
[OGL LOG][Proc: 0]p_rhs: call_update: 0.508 [ms]
[OGL LOG][Proc: 0]init_precond: 0.046 [ms]
[OGL LOG][StoppingCriterion.H:588] Creating stopping criterion with minIter 162 frequency 10
[OGL LOG][Proc: 0]generate_solver: 0.003 [ms]
[OGL LOG][Proc: 0]solve: 111.75 [ms]
[OGL LOG][Proc: 0]copy_x_back: 0.348 [ms]
[OGL LOG][lduLduBase.H:303] 
Statistics:
	Time per iteration: 428 [mu s]
	Time per residual norm calculation: 127.000000 [mu s]
	Time per iteration and DOF: 0.428000 [ns]
	Retrieve results bandwith 2.873000 [GByte/s]
nonehipGKOCG:  Solving for p, Initial residual = 0.00418363, Final residual = 9.37573e-05, No Iterations 261
linear solve p 121.04 [ms]
piso step 125.891 [ms]
 contErrors 
time step continuity errors : sum local = 2.51255e-09, global = -4.3884e-22, cumulative = -1.72883e-20
ExecutionTime = 11.57 s  ClockTime = 12 s

Time = 0.0019

Courant Number mean: 0.00876813 max: 0.092054
DILUPBiCGStab:  Solving for Ux, Initial residual = 0.00875808, Final residual = 3.7675e-08, No Iterations 5
DILUPBiCGStab:  Solving for Uy, Initial residual = 0.0118905, Final residual = 2.26812e-08, No Iterations 5
DILUPBiCGStab:  Solving for Uz, Initial residual = 0.0233587, Final residual = 4.61443e-08, No Iterations 5
linear solve U 102.507 [ms]
piso setup 12.204 [ms]
 correctNonOrthogonal 
 setRef 
 startSolve 
[OGL LOG][Proc: 0]global_index_init: 0.02 [ms]
[OGL LOG][Proc: 0]p_local_coeffs: call_update: 0 [ms]
[OGL LOG][Proc: 0]p_non_local_coeffs: call_update: 0 [ms]
[OGL LOG][Proc: 0]update_local_matrix_data: 5.165 [ms]
[OGL LOG][Proc: 0]update_non_local_matrix_data: 0.284 [ms]
[OGL LOG][Proc: 0]p_matrix: call_update: 2.177 [ms]
[OGL LOG][Proc: 0]p_rhs: call_update: 0.457 [ms]
[OGL LOG][Proc: 0]init_precond: 0.043 [ms]
[OGL LOG][StoppingCriterion.H:588] Creating stopping criterion with minIter 156 frequency 10
[OGL LOG][Proc: 0]generate_solver: 0.003 [ms]
[OGL LOG][Proc: 0]solve: 116.144 [ms]
[OGL LOG][Proc: 0]copy_x_back: 0.334 [ms]
[OGL LOG][lduLduBase.H:303] 
Statistics:
	Time per iteration: 428 [mu s]
	Time per residual norm calculation: 141.000000 [mu s]
	Time per iteration and DOF: 0.428000 [ns]
	Retrieve results bandwith 2.994000 [GByte/s]
nonehipGKOCG:  Solving for p, Initial residual = 0.00469395, Final residual = 7.81377e-05, No Iterations 271
linear solve p 125.333 [ms]
piso step 130.126 [ms]
 contErrors 
time step continuity errors : sum local = 2.14945e-09, global = -5.09564e-22, cumulative = -1.77978e-20
piso setup 11.466 [ms]
 correctNonOrthogonal 
 setRef 
 startSolve 
[OGL LOG][Proc: 0]global_index_init: 0.025 [ms]
[OGL LOG][Proc: 0]p_local_coeffs: call_update: 0 [ms]
[OGL LOG][Proc: 0]p_non_local_coeffs: call_update: 0 [ms]
[OGL LOG][Proc: 0]update_local_matrix_data: 5.182 [ms]
[OGL LOG][Proc: 0]update_non_local_matrix_data: 0.174 [ms]
[OGL LOG][Proc: 0]p_matrix: call_update: 2.333 [ms]
[OGL LOG][Proc: 0]p_rhs: call_update: 0.488 [ms]
[OGL LOG][Proc: 0]init_precond: 0.047 [ms]
[OGL LOG][StoppingCriterion.H:588] Creating stopping criterion with minIter 162 frequency 10
[OGL LOG][Proc: 0]generate_solver: 0.003 [ms]
[OGL LOG][Proc: 0]solve: 110.447 [ms]
[OGL LOG][Proc: 0]copy_x_back: 0.337 [ms]
[OGL LOG][lduLduBase.H:303] 
Statistics:
	Time per iteration: 423 [mu s]
	Time per residual norm calculation: 135.000000 [mu s]
	Time per iteration and DOF: 0.423000 [ns]
	Retrieve results bandwith 2.967000 [GByte/s]
nonehipGKOCG:  Solving for p, Initial residual = 0.00386671, Final residual = 8.72878e-05, No Iterations 261
linear solve p 119.771 [ms]
piso step 124.458 [ms]
 contErrors 
time step continuity errors : sum local = 2.36078e-09, global = -1.17685e-21, cumulative = -1.89747e-20
ExecutionTime = 11.97 s  ClockTime = 12 s

Time = 0.002

Courant Number mean: 0.00894849 max: 0.0922409
DILUPBiCGStab:  Solving for Ux, Initial residual = 0.00826091, Final residual = 3.50135e-08, No Iterations 5
DILUPBiCGStab:  Solving for Uy, Initial residual = 0.0112088, Final residual = 2.13814e-08, No Iterations 5
DILUPBiCGStab:  Solving for Uz, Initial residual = 0.0220929, Final residual = 4.32429e-08, No Iterations 5
linear solve U 104.163 [ms]
piso setup 12.17 [ms]
 correctNonOrthogonal 
 setRef 
 startSolve 
[OGL LOG][Proc: 0]global_index_init: 0.009 [ms]
[OGL LOG][Proc: 0]p_local_coeffs: call_update: 0 [ms]
[OGL LOG][Proc: 0]p_non_local_coeffs: call_update: 0 [ms]
[OGL LOG][Proc: 0]update_local_matrix_data: 5.002 [ms]
[OGL LOG][Proc: 0]update_non_local_matrix_data: 0.263 [ms]
[OGL LOG][Proc: 0]p_matrix: call_update: 2.129 [ms]
[OGL LOG][Proc: 0]p_rhs: call_update: 0.498 [ms]
[OGL LOG][Proc: 0]init_precond: 0.045 [ms]
[OGL LOG][StoppingCriterion.H:588] Creating stopping criterion with minIter 156 frequency 10
[OGL LOG][Proc: 0]generate_solver: 0.003 [ms]
[OGL LOG][Proc: 0]solve: 113.503 [ms]
[OGL LOG][Proc: 0]copy_x_back: 0.347 [ms]
[OGL LOG][lduLduBase.H:303] 
Statistics:
	Time per iteration: 418 [mu s]
	Time per residual norm calculation: 132.000000 [mu s]
	Time per iteration and DOF: 0.418000 [ns]
	Retrieve results bandwith 2.881000 [GByte/s]
nonehipGKOCG:  Solving for p, Initial residual = 0.0043345, Final residual = 7.56151e-05, No Iterations 271
linear solve p 122.521 [ms]
piso step 127.625 [ms]
 contErrors 
time step continuity errors : sum local = 2.09284e-09, global = -1.57936e-21, cumulative = -2.05541e-20
piso setup 12.145 [ms]
 correctNonOrthogonal 
 setRef 
 startSolve 
[OGL LOG][Proc: 0]global_index_init: 0.021 [ms]
[OGL LOG][Proc: 0]p_local_coeffs: call_update: 0 [ms]
[OGL LOG][Proc: 0]p_non_local_coeffs: call_update: 0 [ms]
[OGL LOG][Proc: 0]update_local_matrix_data: 5.015 [ms]
[OGL LOG][Proc: 0]update_non_local_matrix_data: 0.198 [ms]
[OGL LOG][Proc: 0]p_matrix: call_update: 2.207 [ms]
[OGL LOG][Proc: 0]p_rhs: call_update: 0.679 [ms]
[OGL LOG][Proc: 0]init_precond: 0.045 [ms]
[OGL LOG][StoppingCriterion.H:588] Creating stopping criterion with minIter 162 frequency 10
[OGL LOG][Proc: 0]generate_solver: 0.003 [ms]
[OGL LOG][Proc: 0]solve: 111.53 [ms]
[OGL LOG][Proc: 0]copy_x_back: 0.337 [ms]
[OGL LOG][lduLduBase.H:303] 
Statistics:
	Time per iteration: 427 [mu s]
	Time per residual norm calculation: 130.000000 [mu s]
	Time per iteration and DOF: 0.427000 [ns]
	Retrieve results bandwith 2.967000 [GByte/s]
nonehipGKOCG:  Solving for p, Initial residual = 0.00358837, Final residual = 8.32291e-05, No Iterations 261
linear solve p 120.776 [ms]
piso step 126.242 [ms]
 contErrors 
time step continuity errors : sum local = 2.26749e-09, global = -1.06045e-21, cumulative = -2.16145e-20
ExecutionTime = 12.38 s  ClockTime = 13 s

End

Finalising parallel run
================================================================================
hash: cc2cb3cd94b54d3d08f6bca869d34ada
/*---------------------------------------------------------------------------*\
| =========                 |                                                 |
| \\      /  F ield         | OpenFOAM: The Open Source CFD Toolbox           |
|  \\    /   O peration     | Version:  v2106                                 |
|   \\  /    A nd           | Website:  www.openfoam.com                      |
|    \\/     M anipulation  |                                                 |
\*---------------------------------------------------------------------------*/
Build  : f815a12bba-20210902 OPENFOAM=2106
Arch   : "LSB;label=32;scalar=64"
Exec   : icoFoam -parallel
Date   : Oct 06 2022
Time   : 08:50:29
Host   : nla-gpu2.ianm.kit.edu
PID    : 1636083
I/O    : uncollated
Case   : /home/greole/data/code/ogl_labbook/lidDrivenCavity/single_node/mesh/150/matrix_solver/CG_NoPrecond_Ginkgo_HIP/mpiRank_gko/8/base
nProcs : 8
Hosts  :
(
    (nla-gpu2.ianm.kit.edu 8)
)
Pstream initialized with:
    floatTransfer      : 0
    nProcsSimpleSum    : 0
    commsType          : nonBlocking
    polling iterations : 0
trapFpe: Floating point exception trapping enabled (FOAM_SIGFPE).
fileModificationChecking : Monitoring run-time modified files using timeStampMaster (fileModificationSkew 5, maxFileModificationPolls 20)
allowSystemOperations : Allowing user-supplied system call operations

// * * * * * * * * * * * * * * * * * * * * * * * * * * * * * * * * * * * * * //
Create time

Create mesh for time = 0


PISO: Operating solver in PISO mode

Reading transportProperties

Reading field p

Reading field U

Reading/calculating face flux field phi


Starting time loop

Time = 6.66667e-05

Courant Number mean: 0 max: 0
DILUPBiCGStab:  Solving for Ux, Initial residual = 1, Final residual = 3.49206e-05, No Iterations 5
DILUPBiCGStab:  Solving for Uy:  solution singularity
DILUPBiCGStab:  Solving for Uz:  solution singularity
linear solve U 200.002 [ms]
piso setup 55.9 [ms]
 correctNonOrthogonal 
 setRef 
 startSolve 
[OGL LOG][lduLduBase.H:113] Initialising OGL
	OGL commit:  cc46b9f
	Branch: distributed-update 
	Ginkgo version: 1.5.0 ( develop)
	Ginkgo commit: 33f63e9
	MPI is GPU aware: 1
	Forces host buffer based communication: 1
	CPU ranks per GPU: 1
	Matrix format: Coo
	End OGL_INFO
[OGL LOG][Proc: 0]global_index_init: 19.142 [ms]
[OGL LOG][Proc: 0]p_local_cols: call_init: 0 [ms]
[OGL LOG][Proc: 0]p_local_rows: call_init: 0 [ms]
[OGL LOG][Proc: 0]p_local_ldu_map: call_init: 0 [ms]
[OGL LOG][Proc: 0]p_local_coeffs: call_init: 0 [ms]
[OGL LOG][Proc: 0]p_non_local_cols: call_init: 0 [ms]
[OGL LOG][Proc: 0]p_non_local_rows: call_init: 0 [ms]
[OGL LOG][Proc: 0]p_non_local_ldu_map: call_init: 0 [ms]
[OGL LOG][Proc: 0]p_non_local_coeffs: call_init: 0 [ms]
[OGL LOG][Proc: 0]init_local_sparsity_pattern: 53.229 [ms]
[OGL LOG][Proc: 0]init_non_local_sparsity_pattern: 19.652 [ms]
[OGL LOG][Proc: 0]update_local_matrix_data: 28.589 [ms]
[OGL LOG][Proc: 0]update_non_local_matrix_data: 20.41 [ms]
[OGL LOG][Proc: 0]device_partition: call_init: 0 [ms]
[OGL LOG][Proc: 0]p_matrix: call_init: 0 [ms]
[OGL LOG][Proc: 0]p_rhs: call_init: 0 [ms]
[OGL LOG][Proc: 0]p_solution: call_init: 0 [ms]
[OGL LOG][Proc: 0]init_precond: 0.092 [ms]
[OGL LOG][StoppingCriterion.H:588] Creating stopping criterion with minIter 0 frequency 10
[OGL LOG][Proc: 0]generate_solver: 0.027 [ms]
[OGL LOG][Proc: 0]solve: 836.362 [ms]
[OGL LOG][Proc: 0]copy_x_back: 1.394 [ms]
[OGL LOG][lduLduBase.H:303] 
Statistics:
	Time per iteration: 696 [mu s]
	Time per residual norm calculation: 1091.000000 [mu s]
	Time per iteration and DOF: 0.206222 [ns]
	Retrieve results bandwith 2.437000 [GByte/s]
nonehipGKOCG:  Solving for p, Initial residual = 1, Final residual = 9.8553e-05, No Iterations 1201
linear solve p 1553.06 [ms]
piso step 1576.9 [ms]
 contErrors 
time step continuity errors : sum local = 9.83928e-10, global = 3.99647e-22, cumulative = 3.99647e-22
piso setup 62.719 [ms]
 correctNonOrthogonal 
 setRef 
 startSolve 
[OGL LOG][Proc: 0]global_index_init: 0.061 [ms]
[OGL LOG][Proc: 0]p_local_coeffs: call_update: 0.004 [ms]
[OGL LOG][Proc: 0]p_non_local_coeffs: call_update: 0 [ms]
[OGL LOG][Proc: 0]update_local_matrix_data: 21.843 [ms]
[OGL LOG][Proc: 0]update_non_local_matrix_data: 14.502 [ms]
[OGL LOG][Proc: 0]p_matrix: call_update: 3.388 [ms]
[OGL LOG][Proc: 0]p_rhs: call_update: 3.626 [ms]
[OGL LOG][Proc: 0]init_precond: 0.049 [ms]
[OGL LOG][StoppingCriterion.H:588] Creating stopping criterion with minIter 720 frequency 10
[OGL LOG][Proc: 0]generate_solver: 0.003 [ms]
[OGL LOG][Proc: 0]solve: 810.268 [ms]
[OGL LOG][Proc: 0]copy_x_back: 1.339 [ms]
[OGL LOG][lduLduBase.H:303] 
Statistics:
	Time per iteration: 686 [mu s]
	Time per residual norm calculation: 215.000000 [mu s]
	Time per iteration and DOF: 0.203259 [ns]
	Retrieve results bandwith 2.537000 [GByte/s]
nonehipGKOCG:  Solving for p, Initial residual = 0.611417, Final residual = 9.29101e-05, No Iterations 1181
linear solve p 858.851 [ms]
piso step 884.424 [ms]
 contErrors 
time step continuity errors : sum local = 1.37971e-09, global = -1.17895e-22, cumulative = 2.81752e-22
ExecutionTime = 5.08 s  ClockTime = 5 s

Time = 0.000133333

Courant Number mean: 0.00174418 max: 0.0611824
DILUPBiCGStab:  Solving for Ux, Initial residual = 0.201555, Final residual = 1.82429e-05, No Iterations 5
DILUPBiCGStab:  Solving for Uy, Initial residual = 0.321505, Final residual = 1.58849e-05, No Iterations 5
DILUPBiCGStab:  Solving for Uz, Initial residual = 0.989819, Final residual = 5.81767e-05, No Iterations 5
linear solve U 365.887 [ms]
piso setup 60.67 [ms]
 correctNonOrthogonal 
 setRef 
 startSolve 
[OGL LOG][Proc: 0]global_index_init: 0.07 [ms]
[OGL LOG][Proc: 0]p_local_coeffs: call_update: 0 [ms]
[OGL LOG][Proc: 0]p_non_local_coeffs: call_update: 0 [ms]
[OGL LOG][Proc: 0]update_local_matrix_data: 22.792 [ms]
[OGL LOG][Proc: 0]update_non_local_matrix_data: 11.504 [ms]
[OGL LOG][Proc: 0]p_matrix: call_update: 3.338 [ms]
[OGL LOG][Proc: 0]p_rhs: call_update: 3.433 [ms]
[OGL LOG][Proc: 0]init_precond: 0.04 [ms]
[OGL LOG][StoppingCriterion.H:588] Creating stopping criterion with minIter 708 frequency 10
[OGL LOG][Proc: 0]generate_solver: 0.004 [ms]
[OGL LOG][Proc: 0]solve: 790.588 [ms]
[OGL LOG][Proc: 0]copy_x_back: 1.605 [ms]
[OGL LOG][lduLduBase.H:303] 
Statistics:
	Time per iteration: 675 [mu s]
	Time per residual norm calculation: 226.000000 [mu s]
	Time per iteration and DOF: 0.200000 [ns]
	Retrieve results bandwith 2.116000 [GByte/s]
nonehipGKOCG:  Solving for p, Initial residual = 0.452945, Final residual = 6.45629e-05, No Iterations 1171
linear solve p 835.939 [ms]
piso step 857.319 [ms]
 contErrors 
time step continuity errors : sum local = 9.23892e-10, global = 1.75735e-22, cumulative = 4.57487e-22
piso setup 65.171 [ms]
 correctNonOrthogonal 
 setRef 
 startSolve 
[OGL LOG][Proc: 0]global_index_init: 0.049 [ms]
[OGL LOG][Proc: 0]p_local_coeffs: call_update: 0 [ms]
[OGL LOG][Proc: 0]p_non_local_coeffs: call_update: 0 [ms]
[OGL LOG][Proc: 0]update_local_matrix_data: 22.289 [ms]
[OGL LOG][Proc: 0]update_non_local_matrix_data: 11.966 [ms]
[OGL LOG][Proc: 0]p_matrix: call_update: 3.276 [ms]
[OGL LOG][Proc: 0]p_rhs: call_update: 3.281 [ms]
[OGL LOG][Proc: 0]init_precond: 0.045 [ms]
[OGL LOG][StoppingCriterion.H:588] Creating stopping criterion with minIter 702 frequency 10
[OGL LOG][Proc: 0]generate_solver: 0.003 [ms]
[OGL LOG][Proc: 0]solve: 772.742 [ms]
[OGL LOG][Proc: 0]copy_x_back: 1.164 [ms]
[OGL LOG][lduLduBase.H:303] 
Statistics:
	Time per iteration: 665 [mu s]
	Time per residual norm calculation: 217.000000 [mu s]
	Time per iteration and DOF: 0.197037 [ns]
	Retrieve results bandwith 2.918000 [GByte/s]
nonehipGKOCG:  Solving for p, Initial residual = 0.360224, Final residual = 9.41336e-05, No Iterations 1161
linear solve p 817.223 [ms]
piso step 841.723 [ms]
 contErrors 
time step continuity errors : sum local = 1.3974e-09, global = 1.07496e-22, cumulative = 5.64982e-22
ExecutionTime = 7.35 s  ClockTime = 7 s

Time = 0.0002

Courant Number mean: 0.00271567 max: 0.0777794
DILUPBiCGStab:  Solving for Ux, Initial residual = 0.0868445, Final residual = 6.69471e-06, No Iterations 5
DILUPBiCGStab:  Solving for Uy, Initial residual = 0.138256, Final residual = 5.07967e-06, No Iterations 5
DILUPBiCGStab:  Solving for Uz, Initial residual = 0.144465, Final residual = 9.99967e-06, No Iterations 5
linear solve U 371.391 [ms]
piso setup 60.55 [ms]
 correctNonOrthogonal 
 setRef 
 startSolve 
[OGL LOG][Proc: 0]global_index_init: 0.068 [ms]
[OGL LOG][Proc: 0]p_local_coeffs: call_update: 0 [ms]
[OGL LOG][Proc: 0]p_non_local_coeffs: call_update: 0 [ms]
[OGL LOG][Proc: 0]update_local_matrix_data: 22.24 [ms]
[OGL LOG][Proc: 0]update_non_local_matrix_data: 11.539 [ms]
[OGL LOG][Proc: 0]p_matrix: call_update: 3.28 [ms]
[OGL LOG][Proc: 0]p_rhs: call_update: 3.338 [ms]
[OGL LOG][Proc: 0]init_precond: 0.043 [ms]
[OGL LOG][StoppingCriterion.H:588] Creating stopping criterion with minIter 696 frequency 10
[OGL LOG][Proc: 0]generate_solver: 0.004 [ms]
[OGL LOG][Proc: 0]solve: 767.656 [ms]
[OGL LOG][Proc: 0]copy_x_back: 1.187 [ms]
[OGL LOG][lduLduBase.H:303] 
Statistics:
	Time per iteration: 672 [mu s]
	Time per residual norm calculation: 213.000000 [mu s]
	Time per iteration and DOF: 0.199111 [ns]
	Retrieve results bandwith 2.862000 [GByte/s]
nonehipGKOCG:  Solving for p, Initial residual = 0.173677, Final residual = 9.34774e-05, No Iterations 1141
linear solve p 811.684 [ms]
piso step 833.654 [ms]
 contErrors 
time step continuity errors : sum local = 1.10072e-09, global = -5.91654e-23, cumulative = 5.05817e-22
piso setup 49.5 [ms]
 correctNonOrthogonal 
 setRef 
 startSolve 
[OGL LOG][Proc: 0]global_index_init: 0.08 [ms]
[OGL LOG][Proc: 0]p_local_coeffs: call_update: 0 [ms]
[OGL LOG][Proc: 0]p_non_local_coeffs: call_update: 0 [ms]
[OGL LOG][Proc: 0]update_local_matrix_data: 22.245 [ms]
[OGL LOG][Proc: 0]update_non_local_matrix_data: 15.053 [ms]
[OGL LOG][Proc: 0]p_matrix: call_update: 3.83 [ms]
[OGL LOG][Proc: 0]p_rhs: call_update: 2.564 [ms]
[OGL LOG][Proc: 0]init_precond: 0.044 [ms]
[OGL LOG][StoppingCriterion.H:588] Creating stopping criterion with minIter 684 frequency 10
[OGL LOG][Proc: 0]generate_solver: 0.003 [ms]
[OGL LOG][Proc: 0]solve: 766.296 [ms]
[OGL LOG][Proc: 0]copy_x_back: 1.151 [ms]
[OGL LOG][lduLduBase.H:303] 
Statistics:
	Time per iteration: 677 [mu s]
	Time per residual norm calculation: 217.000000 [mu s]
	Time per iteration and DOF: 0.200593 [ns]
	Retrieve results bandwith 2.951000 [GByte/s]
nonehipGKOCG:  Solving for p, Initial residual = 0.141125, Final residual = 9.9369e-05, No Iterations 1131
linear solve p 814.943 [ms]
piso step 835.232 [ms]
 contErrors 
time step continuity errors : sum local = 1.16783e-09, global = -3.18397e-22, cumulative = 1.8742e-22
ExecutionTime = 9.59 s  ClockTime = 9 s

Time = 0.000266667

Courant Number mean: 0.0033815 max: 0.0835577
DILUPBiCGStab:  Solving for Ux, Initial residual = 0.0544581, Final residual = 2.74223e-06, No Iterations 5
DILUPBiCGStab:  Solving for Uy, Initial residual = 0.0860376, Final residual = 3.09606e-06, No Iterations 5
DILUPBiCGStab:  Solving for Uz, Initial residual = 0.11669, Final residual = 5.03749e-06, No Iterations 5
linear solve U 357.775 [ms]
piso setup 47.807 [ms]
 correctNonOrthogonal 
 setRef 
 startSolve 
[OGL LOG][Proc: 0]global_index_init: 0.081 [ms]
[OGL LOG][Proc: 0]p_local_coeffs: call_update: 0 [ms]
[OGL LOG][Proc: 0]p_non_local_coeffs: call_update: 0 [ms]
[OGL LOG][Proc: 0]update_local_matrix_data: 22.002 [ms]
[OGL LOG][Proc: 0]update_non_local_matrix_data: 8.344 [ms]
[OGL LOG][Proc: 0]p_matrix: call_update: 3.665 [ms]
[OGL LOG][Proc: 0]p_rhs: call_update: 10.014 [ms]
[OGL LOG][Proc: 0]init_precond: 0.039 [ms]
[OGL LOG][StoppingCriterion.H:588] Creating stopping criterion with minIter 678 frequency 10
[OGL LOG][Proc: 0]generate_solver: 0.003 [ms]
[OGL LOG][Proc: 0]solve: 763.346 [ms]
[OGL LOG][Proc: 0]copy_x_back: 1.544 [ms]
[OGL LOG][lduLduBase.H:303] 
Statistics:
	Time per iteration: 687 [mu s]
	Time per residual norm calculation: 222.000000 [mu s]
	Time per iteration and DOF: 0.203556 [ns]
	Retrieve results bandwith 2.200000 [GByte/s]
nonehipGKOCG:  Solving for p, Initial residual = 0.0874327, Final residual = 8.80773e-05, No Iterations 1111
linear solve p 812.736 [ms]
piso step 833.528 [ms]
 contErrors 
time step continuity errors : sum local = 9.88752e-10, global = -1.7634e-23, cumulative = 1.69785e-22
piso setup 54.307 [ms]
 correctNonOrthogonal 
 setRef 
 startSolve 
[OGL LOG][Proc: 0]global_index_init: 0.045 [ms]
[OGL LOG][Proc: 0]p_local_coeffs: call_update: 0 [ms]
[OGL LOG][Proc: 0]p_non_local_coeffs: call_update: 0 [ms]
[OGL LOG][Proc: 0]update_local_matrix_data: 25.463 [ms]
[OGL LOG][Proc: 0]update_non_local_matrix_data: 11.053 [ms]
[OGL LOG][Proc: 0]p_matrix: call_update: 3.627 [ms]
[OGL LOG][Proc: 0]p_rhs: call_update: 6.75 [ms]
[OGL LOG][Proc: 0]init_precond: 0.044 [ms]
[OGL LOG][StoppingCriterion.H:588] Creating stopping criterion with minIter 666 frequency 10
[OGL LOG][Proc: 0]generate_solver: 0.003 [ms]
[OGL LOG][Proc: 0]solve: 737.037 [ms]
[OGL LOG][Proc: 0]copy_x_back: 1.168 [ms]
[OGL LOG][lduLduBase.H:303] 
Statistics:
	Time per iteration: 669 [mu s]
	Time per residual norm calculation: 216.000000 [mu s]
	Time per iteration and DOF: 0.198222 [ns]
	Retrieve results bandwith 2.908000 [GByte/s]
nonehipGKOCG:  Solving for p, Initial residual = 0.0701102, Final residual = 9.79173e-05, No Iterations 1101
linear solve p 787.59 [ms]
piso step 807.625 [ms]
 contErrors 
time step continuity errors : sum local = 1.11334e-09, global = -4.41027e-22, cumulative = -2.71241e-22
ExecutionTime = 11.75 s  ClockTime = 11 s

Time = 0.000333333

Courant Number mean: 0.00390574 max: 0.0863403
DILUPBiCGStab:  Solving for Ux, Initial residual = 0.0400408, Final residual = 1.92074e-06, No Iterations 5
DILUPBiCGStab:  Solving for Uy, Initial residual = 0.0618412, Final residual = 2.01491e-06, No Iterations 5
DILUPBiCGStab:  Solving for Uz, Initial residual = 0.0932663, Final residual = 2.97907e-06, No Iterations 5
linear solve U 357.436 [ms]
piso setup 47.055 [ms]
 correctNonOrthogonal 
 setRef 
 startSolve 
[OGL LOG][Proc: 0]global_index_init: 0.041 [ms]
[OGL LOG][Proc: 0]p_local_coeffs: call_update: 0 [ms]
[OGL LOG][Proc: 0]p_non_local_coeffs: call_update: 0 [ms]
[OGL LOG][Proc: 0]update_local_matrix_data: 22.031 [ms]
[OGL LOG][Proc: 0]update_non_local_matrix_data: 8.265 [ms]
[OGL LOG][Proc: 0]p_matrix: call_update: 3.403 [ms]
[OGL LOG][Proc: 0]p_rhs: call_update: 3.364 [ms]
[OGL LOG][Proc: 0]init_precond: 0.046 [ms]
[OGL LOG][StoppingCriterion.H:588] Creating stopping criterion with minIter 660 frequency 10
[OGL LOG][Proc: 0]generate_solver: 0.003 [ms]
[OGL LOG][Proc: 0]solve: 744.92 [ms]
[OGL LOG][Proc: 0]copy_x_back: 1.185 [ms]
[OGL LOG][lduLduBase.H:303] 
Statistics:
	Time per iteration: 682 [mu s]
	Time per residual norm calculation: 211.000000 [mu s]
	Time per iteration and DOF: 0.202074 [ns]
	Retrieve results bandwith 2.866000 [GByte/s]
nonehipGKOCG:  Solving for p, Initial residual = 0.0475945, Final residual = 9.44205e-05, No Iterations 1091
linear solve p 787.075 [ms]
piso step 806.199 [ms]
 contErrors 
time step continuity errors : sum local = 1.05938e-09, global = 1.85716e-22, cumulative = -8.55251e-23
piso setup 54.318 [ms]
 correctNonOrthogonal 
 setRef 
 startSolve 
[OGL LOG][Proc: 0]global_index_init: 0.054 [ms]
[OGL LOG][Proc: 0]p_local_coeffs: call_update: 0 [ms]
[OGL LOG][Proc: 0]p_non_local_coeffs: call_update: 0 [ms]
[OGL LOG][Proc: 0]update_local_matrix_data: 22.151 [ms]
[OGL LOG][Proc: 0]update_non_local_matrix_data: 15.066 [ms]
[OGL LOG][Proc: 0]p_matrix: call_update: 3.762 [ms]
[OGL LOG][Proc: 0]p_rhs: call_update: 2.897 [ms]
[OGL LOG][Proc: 0]init_precond: 0.049 [ms]
[OGL LOG][StoppingCriterion.H:588] Creating stopping criterion with minIter 654 frequency 10
[OGL LOG][Proc: 0]generate_solver: 0.003 [ms]
[OGL LOG][Proc: 0]solve: 730.331 [ms]
[OGL LOG][Proc: 0]copy_x_back: 1.178 [ms]
[OGL LOG][lduLduBase.H:303] 
Statistics:
	Time per iteration: 669 [mu s]
	Time per residual norm calculation: 214.000000 [mu s]
	Time per iteration and DOF: 0.198222 [ns]
	Retrieve results bandwith 2.883000 [GByte/s]
nonehipGKOCG:  Solving for p, Initial residual = 0.0395043, Final residual = 7.45276e-05, No Iterations 1091
linear solve p 777.688 [ms]
piso step 797.792 [ms]
 contErrors 
time step continuity errors : sum local = 8.39448e-10, global = 8.52672e-23, cumulative = -2.57848e-25
ExecutionTime = 13.89 s  ClockTime = 14 s

Time = 0.0004

Courant Number mean: 0.00434732 max: 0.088016
DILUPBiCGStab:  Solving for Ux, Initial residual = 0.0318502, Final residual = 1.20086e-06, No Iterations 5
DILUPBiCGStab:  Solving for Uy, Initial residual = 0.0483335, Final residual = 1.2557e-06, No Iterations 5
DILUPBiCGStab:  Solving for Uz, Initial residual = 0.0775968, Final residual = 2.15808e-06, No Iterations 5
linear solve U 367.117 [ms]
piso setup 46.991 [ms]
 correctNonOrthogonal 
 setRef 
 startSolve 
[OGL LOG][Proc: 0]global_index_init: 0.03 [ms]
[OGL LOG][Proc: 0]p_local_coeffs: call_update: 0 [ms]
[OGL LOG][Proc: 0]p_non_local_coeffs: call_update: 0 [ms]
[OGL LOG][Proc: 0]update_local_matrix_data: 22.133 [ms]
[OGL LOG][Proc: 0]update_non_local_matrix_data: 8.158 [ms]
[OGL LOG][Proc: 0]p_matrix: call_update: 3.649 [ms]
[OGL LOG][Proc: 0]p_rhs: call_update: 7.483 [ms]
[OGL LOG][Proc: 0]init_precond: 0.043 [ms]
[OGL LOG][StoppingCriterion.H:588] Creating stopping criterion with minIter 654 frequency 10
[OGL LOG][Proc: 0]generate_solver: 0.004 [ms]
[OGL LOG][Proc: 0]solve: 721.208 [ms]
[OGL LOG][Proc: 0]copy_x_back: 1.179 [ms]
[OGL LOG][lduLduBase.H:303] 
Statistics:
	Time per iteration: 667 [mu s]
	Time per residual norm calculation: 214.000000 [mu s]
	Time per iteration and DOF: 0.197630 [ns]
	Retrieve results bandwith 2.881000 [GByte/s]
nonehipGKOCG:  Solving for p, Initial residual = 0.0312917, Final residual = 9.1872e-05, No Iterations 1081
linear solve p 765.983 [ms]
piso step 784.392 [ms]
 contErrors 
time step continuity errors : sum local = 1.03086e-09, global = -2.18157e-22, cumulative = -2.18415e-22
piso setup 50.183 [ms]
 correctNonOrthogonal 
 setRef 
 startSolve 
[OGL LOG][Proc: 0]global_index_init: 0.076 [ms]
[OGL LOG][Proc: 0]p_local_coeffs: call_update: 0 [ms]
[OGL LOG][Proc: 0]p_non_local_coeffs: call_update: 0 [ms]
[OGL LOG][Proc: 0]update_local_matrix_data: 22.364 [ms]
[OGL LOG][Proc: 0]update_non_local_matrix_data: 14.845 [ms]
[OGL LOG][Proc: 0]p_matrix: call_update: 3.893 [ms]
[OGL LOG][Proc: 0]p_rhs: call_update: 3.133 [ms]
[OGL LOG][Proc: 0]init_precond: 0.048 [ms]
[OGL LOG][StoppingCriterion.H:588] Creating stopping criterion with minIter 648 frequency 10
[OGL LOG][Proc: 0]generate_solver: 0.003 [ms]
[OGL LOG][Proc: 0]solve: 737.574 [ms]
[OGL LOG][Proc: 0]copy_x_back: 1.562 [ms]
[OGL LOG][lduLduBase.H:303] 
Statistics:
	Time per iteration: 682 [mu s]
	Time per residual norm calculation: 224.000000 [mu s]
	Time per iteration and DOF: 0.202074 [ns]
	Retrieve results bandwith 2.174000 [GByte/s]
nonehipGKOCG:  Solving for p, Initial residual = 0.0263165, Final residual = 7.75906e-05, No Iterations 1081
linear solve p 786.606 [ms]
piso step 808.889 [ms]
 contErrors 
time step continuity errors : sum local = 8.74599e-10, global = -8.81438e-23, cumulative = -3.06559e-22
ExecutionTime = 16.02 s  ClockTime = 16 s

Time = 0.000466667

Courant Number mean: 0.00473117 max: 0.0891668
DILUPBiCGStab:  Solving for Ux, Initial residual = 0.0265078, Final residual = 9.64545e-07, No Iterations 5
DILUPBiCGStab:  Solving for Uy, Initial residual = 0.0396397, Final residual = 8.91192e-07, No Iterations 5
DILUPBiCGStab:  Solving for Uz, Initial residual = 0.0662782, Final residual = 1.67859e-06, No Iterations 5
linear solve U 355.834 [ms]
piso setup 47.641 [ms]
 correctNonOrthogonal 
 setRef 
 startSolve 
[OGL LOG][Proc: 0]global_index_init: 0.054 [ms]
[OGL LOG][Proc: 0]p_local_coeffs: call_update: 0 [ms]
[OGL LOG][Proc: 0]p_non_local_coeffs: call_update: 0 [ms]
[OGL LOG][Proc: 0]update_local_matrix_data: 22.09 [ms]
[OGL LOG][Proc: 0]update_non_local_matrix_data: 8.745 [ms]
[OGL LOG][Proc: 0]p_matrix: call_update: 3.67 [ms]
[OGL LOG][Proc: 0]p_rhs: call_update: 2.853 [ms]
[OGL LOG][Proc: 0]init_precond: 0.043 [ms]
[OGL LOG][StoppingCriterion.H:588] Creating stopping criterion with minIter 648 frequency 10
[OGL LOG][Proc: 0]generate_solver: 0.004 [ms]
[OGL LOG][Proc: 0]solve: 447.265 [ms]
[...]
linear solve U 9266.77 [ms]
piso setup 1328.98 [ms]
 correctNonOrthogonal 
 setRef 
 startSolve 
[OGL LOG][Proc: 0]global_index_init: 0.979 [ms]
[OGL LOG][Proc: 0]p_local_coeffs: call_update: 0 [ms]
[OGL LOG][Proc: 0]p_non_local_coeffs: call_update: 0 [ms]
[OGL LOG][Proc: 0]update_local_matrix_data: 190.683 [ms]
[OGL LOG][Proc: 0]update_non_local_matrix_data: 1.217 [ms]
[OGL LOG][Proc: 0]p_matrix: call_update: 72.254 [ms]
[OGL LOG][Proc: 0]p_rhs: call_update: 29.981 [ms]
[OGL LOG][Proc: 0]init_precond: 0.044 [ms]
[OGL LOG][StoppingCriterion.H:588] Creating stopping criterion with minIter 798 frequency 10
[OGL LOG][Proc: 0]generate_solver: 0.003 [ms]
[OGL LOG][Proc: 0]solve: 9716.79 [ms]
[OGL LOG][Proc: 0]copy_x_back: 35.967 [ms]
[OGL LOG][lduLduBase.H:311] 
Statistics:
	Time per iteration: 7087 [mu s]
	Time per residual norm calculation: 385.000000 [mu s]
	Time per iteration and DOF: 0.110734 [ns]
	Retrieve results bandwith 2.376000 [GByte/s]
nonehipGKOCG:  Solving for p, Initial residual = 0.0144975, Final residual = 9.15909e-05, No Iterations 1371
linear solve p 10084.7 [ms]
piso step 10589.2 [ms]
 contErrors 
time step continuity errors : sum local = 1.72098e-10, global = -1.53933e-23, cumulative = 6.37867e-22
piso setup 1264.64 [ms]
 correctNonOrthogonal 
 setRef 
 startSolve 
[OGL LOG][Proc: 0]global_index_init: 0.637 [ms]
[OGL LOG][Proc: 0]p_local_coeffs: call_update: 0 [ms]
[OGL LOG][Proc: 0]p_non_local_coeffs: call_update: 0 [ms]
[OGL LOG][Proc: 0]update_local_matrix_data: 187.625 [ms]
[OGL LOG][Proc: 0]update_non_local_matrix_data: 2.524 [ms]
[OGL LOG][Proc: 0]p_matrix: call_update: 73.446 [ms]
[OGL LOG][Proc: 0]p_rhs: call_update: 31.937 [ms]
[OGL LOG][Proc: 0]init_precond: 0.048 [ms]
[OGL LOG][StoppingCriterion.H:588] Creating stopping criterion with minIter 822 frequency 10
[OGL LOG][Proc: 0]generate_solver: 0.003 [ms]
[OGL LOG][Proc: 0]solve: 8658.57 [ms]
[OGL LOG][Proc: 0]copy_x_back: 39.039 [ms]
[OGL LOG][lduLduBase.H:311] 
Statistics:
	Time per iteration: 7091 [mu s]
	Time per residual norm calculation: 397.000000 [mu s]
	Time per iteration and DOF: 0.110797 [ns]
	Retrieve results bandwith 2.189000 [GByte/s]
nonehipGKOCG:  Solving for p, Initial residual = 0.0136257, Final residual = 9.83434e-05, No Iterations 1221
linear solve p 9032.63 [ms]
piso step 9553.18 [ms]
 contErrors 
time step continuity errors : sum local = 1.76345e-10, global = 1.00171e-23, cumulative = 6.47884e-22
ExecutionTime = 664.7 s  ClockTime = 674 s

Time = 0.000375

Courant Number mean: 0.00457894 max: 0.0958558
momentum setup 966.53 [ms]
DILUPBiCGStab:  Solving for Ux, Initial residual = 0.0105397, Final residual = 5.48763e-06, No Iterations 5
DILUPBiCGStab:  Solving for Uy, Initial residual = 0.0167844, Final residual = 4.00552e-06, No Iterations 5
DILUPBiCGStab:  Solving for Uz, Initial residual = 0.0322027, Final residual = 2.23884e-05, No Iterations 5
linear solve U 9261.71 [ms]
piso setup 1289.99 [ms]
 correctNonOrthogonal 
 setRef 
 startSolve 
[OGL LOG][Proc: 0]global_index_init: 0.869 [ms]
[OGL LOG][Proc: 0]p_local_coeffs: call_update: 0 [ms]
[OGL LOG][Proc: 0]p_non_local_coeffs: call_update: 0 [ms]
[OGL LOG][Proc: 0]update_local_matrix_data: 190.113 [ms]
[OGL LOG][Proc: 0]update_non_local_matrix_data: 1.964 [ms]
[OGL LOG][Proc: 0]p_matrix: call_update: 64.326 [ms]
[OGL LOG][Proc: 0]p_rhs: call_update: 30.527 [ms]
[OGL LOG][Proc: 0]init_precond: 0.051 [ms]
[OGL LOG][StoppingCriterion.H:588] Creating stopping criterion with minIter 732 frequency 10
[OGL LOG][Proc: 0]generate_solver: 0.003 [ms]
[OGL LOG][Proc: 0]solve: 9581.74 [ms]
[OGL LOG][Proc: 0]copy_x_back: 36.549 [ms]
[OGL LOG][lduLduBase.H:311] 
Statistics:
	Time per iteration: 7092 [mu s]
	Time per residual norm calculation: 397.000000 [mu s]
	Time per iteration and DOF: 0.110812 [ns]
	Retrieve results bandwith 2.338000 [GByte/s]
nonehipGKOCG:  Solving for p, Initial residual = 0.0130267, Final residual = 9.29326e-05, No Iterations 1351
linear solve p 9949.88 [ms]
piso step 10462.2 [ms]
 contErrors 
time step continuity errors : sum local = 1.7111e-10, global = -3.13282e-23, cumulative = 6.16556e-22
piso setup 1304.63 [ms]
 correctNonOrthogonal 
 setRef 
 startSolve 
[OGL LOG][Proc: 0]global_index_init: 0.648 [ms]
[OGL LOG][Proc: 0]p_local_coeffs: call_update: 0 [ms]
[OGL LOG][Proc: 0]p_non_local_coeffs: call_update: 0 [ms]
[OGL LOG][Proc: 0]update_local_matrix_data: 188.079 [ms]
[OGL LOG][Proc: 0]update_non_local_matrix_data: 1.874 [ms]
[OGL LOG][Proc: 0]p_matrix: call_update: 70.124 [ms]
[OGL LOG][Proc: 0]p_rhs: call_update: 33.457 [ms]
[OGL LOG][Proc: 0]init_precond: 0.044 [ms]
[OGL LOG][StoppingCriterion.H:588] Creating stopping criterion with minIter 810 frequency 10
[OGL LOG][Proc: 0]generate_solver: 0.003 [ms]
[OGL LOG][Proc: 0]solve: 9274.18 [ms]
[OGL LOG][Proc: 0]copy_x_back: 40.473 [ms]
[OGL LOG][lduLduBase.H:311] 
Statistics:
	Time per iteration: 7074 [mu s]
	Time per residual norm calculation: 383.000000 [mu s]
	Time per iteration and DOF: 0.110531 [ns]
	Retrieve results bandwith 2.112000 [GByte/s]
nonehipGKOCG:  Solving for p, Initial residual = 0.012283, Final residual = 9.70601e-05, No Iterations 1311
linear solve p 9645.79 [ms]
piso step 10143.3 [ms]
 contErrors 
time step continuity errors : sum local = 1.70768e-10, global = 2.05687e-23, cumulative = 6.37125e-22
ExecutionTime = 699.16 s  ClockTime = 709 s

Time = 0.0004

Courant Number mean: 0.00471942 max: 0.095994
momentum setup 964.885 [ms]
DILUPBiCGStab:  Solving for Ux, Initial residual = 0.00989123, Final residual = 4.80518e-06, No Iterations 5
DILUPBiCGStab:  Solving for Uy, Initial residual = 0.0156097, Final residual = 3.62746e-06, No Iterations 5
DILUPBiCGStab:  Solving for Uz, Initial residual = 0.0304692, Final residual = 2.19325e-05, No Iterations 5
linear solve U 9354.34 [ms]
piso setup 1307.24 [ms]
 correctNonOrthogonal 
 setRef 
 startSolve 
[OGL LOG][Proc: 0]global_index_init: 0.93 [ms]
[OGL LOG][Proc: 0]p_local_coeffs: call_update: 0 [ms]
[OGL LOG][Proc: 0]p_non_local_coeffs: call_update: 0 [ms]
[OGL LOG][Proc: 0]update_local_matrix_data: 188.503 [ms]
[OGL LOG][Proc: 0]update_non_local_matrix_data: 3.698 [ms]
[OGL LOG][Proc: 0]p_matrix: call_update: 59.175 [ms]
[OGL LOG][Proc: 0]p_rhs: call_update: 30.276 [ms]
[OGL LOG][Proc: 0]init_precond: 0.05 [ms]
[OGL LOG][StoppingCriterion.H:588] Creating stopping criterion with minIter 786 frequency 10
[OGL LOG][Proc: 0]generate_solver: 0.003 [ms]
[OGL LOG][Proc: 0]solve: 9775.02 [ms]
[OGL LOG][Proc: 0]copy_x_back: 40.294 [ms]
[OGL LOG][lduLduBase.H:311] 
Statistics:
	Time per iteration: 7078 [mu s]
	Time per residual norm calculation: 392.000000 [mu s]
	Time per iteration and DOF: 0.110594 [ns]
	Retrieve results bandwith 2.121000 [GByte/s]
nonehipGKOCG:  Solving for p, Initial residual = 0.0118186, Final residual = 8.96501e-05, No Iterations 1381
linear solve p 10149.8 [ms]
piso step 10665.3 [ms]
 contErrors 
time step continuity errors : sum local = 1.72267e-10, global = -5.80409e-23, cumulative = 5.79084e-22
piso setup 1265.12 [ms]
 correctNonOrthogonal 
 setRef 
 startSolve 
[OGL LOG][Proc: 0]global_index_init: 0.731 [ms]
[OGL LOG][Proc: 0]p_local_coeffs: call_update: 0 [ms]
[OGL LOG][Proc: 0]p_non_local_coeffs: call_update: 0 [ms]
[OGL LOG][Proc: 0]update_local_matrix_data: 188.372 [ms]
[OGL LOG][Proc: 0]update_non_local_matrix_data: 1.27 [ms]
[OGL LOG][Proc: 0]p_matrix: call_update: 64.918 [ms]
[OGL LOG][Proc: 0]p_rhs: call_update: 34.301 [ms]
[OGL LOG][Proc: 0]init_precond: 0.045 [ms]
[OGL LOG][StoppingCriterion.H:588] Creating stopping criterion with minIter 828 frequency 10
[OGL LOG][Proc: 0]generate_solver: 0.003 [ms]
[OGL LOG][Proc: 0]solve: 9056.11 [ms]
[OGL LOG][Proc: 0]copy_x_back: 36.317 [ms]
[OGL LOG][lduLduBase.H:311] 
Statistics:
	Time per iteration: 7069 [mu s]
	Time per residual norm calculation: 381.000000 [mu s]
	Time per iteration and DOF: 0.110453 [ns]
	Retrieve results bandwith 2.353000 [GByte/s]
nonehipGKOCG:  Solving for p, Initial residual = 0.0112018, Final residual = 9.79922e-05, No Iterations 1281
linear solve p 9426.66 [ms]
piso step 9929.31 [ms]
 contErrors 
time step continuity errors : sum local = 1.76935e-10, global = 5.96875e-23, cumulative = 6.38772e-22
ExecutionTime = 733.67 s  ClockTime = 744 s

Time = 0.000425

Courant Number mean: 0.0048538 max: 0.0961184
momentum setup 974.312 [ms]
DILUPBiCGStab:  Solving for Ux, Initial residual = 0.00930819, Final residual = 4.25827e-06, No Iterations 5
DILUPBiCGStab:  Solving for Uy, Initial residual = 0.0146093, Final residual = 3.32529e-06, No Iterations 5
DILUPBiCGStab:  Solving for Uz, Initial residual = 0.0287163, Final residual = 2.25744e-05, No Iterations 5
linear solve U 9258.92 [ms]
piso setup 1357.91 [ms]
 correctNonOrthogonal 
 setRef 
 startSolve 
[OGL LOG][Proc: 0]global_index_init: 1.26 [ms]
[OGL LOG][Proc: 0]p_local_coeffs: call_update: 0 [ms]
[OGL LOG][Proc: 0]p_non_local_coeffs: call_update: 0 [ms]
[OGL LOG][Proc: 0]update_local_matrix_data: 192.103 [ms]
[OGL LOG][Proc: 0]update_non_local_matrix_data: 1.339 [ms]
[OGL LOG][Proc: 0]p_matrix: call_update: 66.85 [ms]
[OGL LOG][Proc: 0]p_rhs: call_update: 28.124 [ms]
[OGL LOG][Proc: 0]init_precond: 0.057 [ms]
[OGL LOG][StoppingCriterion.H:588] Creating stopping criterion with minIter 768 frequency 10
[OGL LOG][Proc: 0]generate_solver: 0.004 [ms]
[OGL LOG][Proc: 0]solve: 9560.85 [ms]
[OGL LOG][Proc: 0]copy_x_back: 38.606 [ms]
[OGL LOG][lduLduBase.H:311] 
Statistics:
	Time per iteration: 7076 [mu s]
	Time per residual norm calculation: 393.000000 [mu s]
	Time per iteration and DOF: 0.110562 [ns]
	Retrieve results bandwith 2.214000 [GByte/s]
nonehipGKOCG:  Solving for p, Initial residual = 0.0108589, Final residual = 9.82258e-05, No Iterations 1351
linear solve p 9939.23 [ms]
piso step 10471 [ms]
 contErrors 
time step continuity errors : sum local = 1.84468e-10, global = 3.75721e-24, cumulative = 6.42529e-22
piso setup 1265.61 [ms]
 correctNonOrthogonal 
 setRef 
 startSolve 
[OGL LOG][Proc: 0]global_index_init: 0.504 [ms]
[OGL LOG][Proc: 0]p_local_coeffs: call_update: 0 [ms]
[OGL LOG][Proc: 0]p_non_local_coeffs: call_update: 0 [ms]
[OGL LOG][Proc: 0]update_local_matrix_data: 188.03 [ms]
[OGL LOG][Proc: 0]update_non_local_matrix_data: 3.411 [ms]
[OGL LOG][Proc: 0]p_matrix: call_update: 67.055 [ms]
[OGL LOG][Proc: 0]p_rhs: call_update: 33.217 [ms]
[OGL LOG][Proc: 0]init_precond: 0.046 [ms]
[OGL LOG][StoppingCriterion.H:588] Creating stopping criterion with minIter 810 frequency 10
[OGL LOG][Proc: 0]generate_solver: 0.003 [ms]
[OGL LOG][Proc: 0]solve: 9051.78 [ms]
[OGL LOG][Proc: 0]copy_x_back: 36.336 [ms]
[OGL LOG][lduLduBase.H:311] 
Statistics:
	Time per iteration: 7066 [mu s]
	Time per residual norm calculation: 385.000000 [mu s]
	Time per iteration and DOF: 0.110406 [ns]
	Retrieve results bandwith 2.352000 [GByte/s]
nonehipGKOCG:  Solving for p, Initial residual = 0.0103097, Final residual = 9.84536e-05, No Iterations 1281
linear solve p 9418.94 [ms]
piso step 9932.15 [ms]
 contErrors 
time step continuity errors : sum local = 1.74402e-10, global = 3.34236e-23, cumulative = 6.75952e-22
ExecutionTime = 767.97 s  ClockTime = 779 s

Time = 0.00045

Courant Number mean: 0.00498282 max: 0.096231
momentum setup 966.826 [ms]
DILUPBiCGStab:  Solving for Ux, Initial residual = 0.00880211, Final residual = 3.81565e-06, No Iterations 5
DILUPBiCGStab:  Solving for Uy, Initial residual = 0.0137008, Final residual = 3.04032e-06, No Iterations 5
DILUPBiCGStab:  Solving for Uz, Initial residual = 0.027374, Final residual = 2.26089e-05, No Iterations 5
linear solve U 9258.78 [ms]
piso setup 1334.69 [ms]
 correctNonOrthogonal 
 setRef 
 startSolve 
[OGL LOG][Proc: 0]global_index_init: 0.931 [ms]
[OGL LOG][Proc: 0]p_local_coeffs: call_update: 0 [ms]
[OGL LOG][Proc: 0]p_non_local_coeffs: call_update: 0 [ms]
[OGL LOG][Proc: 0]update_local_matrix_data: 188.604 [ms]
[OGL LOG][Proc: 0]update_non_local_matrix_data: 1.781 [ms]
[OGL LOG][Proc: 0]p_matrix: call_update: 64.419 [ms]
[OGL LOG][Proc: 0]p_rhs: call_update: 29.165 [ms]
[OGL LOG][Proc: 0]init_precond: 0.044 [ms]
[OGL LOG][StoppingCriterion.H:588] Creating stopping criterion with minIter 768 frequency 10
[OGL LOG][Proc: 0]generate_solver: 0.003 [ms]
[OGL LOG][Proc: 0]solve: 20628.2 [ms]
[OGL LOG][Proc: 0]copy_x_back: 34.672 [ms]
[OGL LOG][lduLduBase.H:311] 
Statistics:
	Time per iteration: 7110 [mu s]
	Time per residual norm calculation: 388.000000 [mu s]
	Time per iteration and DOF: 0.111094 [ns]
	Retrieve results bandwith 2.465000 [GByte/s]
nonehipGKOCG:  Solving for p, Initial residual = 0.0100727, Final residual = 8.70626e-05, No Iterations 2901
linear solve p 21011.7 [ms]
piso step 21520 [ms]
 contErrors 
time step continuity errors : sum local = 1.52013e-10, global = -1.11626e-22, cumulative = 5.64326e-22
piso setup 1301.56 [ms]
 correctNonOrthogonal 
 setRef 
 startSolve 
[OGL LOG][Proc: 0]global_index_init: 0.595 [ms]
[OGL LOG][Proc: 0]p_local_coeffs: call_update: 0 [ms]
[OGL LOG][Proc: 0]p_non_local_coeffs: call_update: 0 [ms]
[OGL LOG][Proc: 0]update_local_matrix_data: 189.334 [ms]
[OGL LOG][Proc: 0]update_non_local_matrix_data: 4.464 [ms]
[OGL LOG][Proc: 0]p_matrix: call_update: 64.706 [ms]
[OGL LOG][Proc: 0]p_rhs: call_update: 28.821 [ms]
[OGL LOG][Proc: 0]init_precond: 0.048 [ms]
[OGL LOG][StoppingCriterion.H:588] Creating stopping criterion with minIter 1740 frequency 10
[OGL LOG][Proc: 0]generate_solver: 0.003 [ms]
[OGL LOG][Proc: 0]solve: 20473.2 [ms]
[OGL LOG][Proc: 0]copy_x_back: 39.829 [ms]
[OGL LOG][lduLduBase.H:311] 
Statistics:
	Time per iteration: 7081 [mu s]
	Time per residual norm calculation: 398.000000 [mu s]
	Time per iteration and DOF: 0.110641 [ns]
	Retrieve results bandwith 2.146000 [GByte/s]
nonehipGKOCG:  Solving for p, Initial residual = 0.00958318, Final residual = 9.34795e-05, No Iterations 2891
linear solve p 20856.9 [ms]
piso step 21355.6 [ms]
 contErrors 
time step continuity errors : sum local = 1.63273e-10, global = 2.79306e-23, cumulative = 5.92257e-22
ExecutionTime = 824.19 s  ClockTime = 836 s

Time = 0.000475

Courant Number mean: 0.00510684 max: 0.0963337
momentum setup 964.981 [ms]
DILUPBiCGStab:  Solving for Ux, Initial residual = 0.00833884, Final residual = 3.44747e-06, No Iterations 5
DILUPBiCGStab:  Solving for Uy, Initial residual = 0.0129146, Final residual = 2.82624e-06, No Iterations 5
DILUPBiCGStab:  Solving for Uz, Initial residual = 0.0247042, Final residual = 1.351e-05, No Iterations 5
linear solve U 9313.92 [ms]
piso setup 1335.17 [ms]
 correctNonOrthogonal 
 setRef 
 startSolve 
[OGL LOG][Proc: 0]global_index_init: 1.201 [ms]
[OGL LOG][Proc: 0]p_local_coeffs: call_update: 0 [ms]
[OGL LOG][Proc: 0]p_non_local_coeffs: call_update: 0 [ms]
[OGL LOG][Proc: 0]update_local_matrix_data: 189.215 [ms]
[OGL LOG][Proc: 0]update_non_local_matrix_data: 2.387 [ms]
[OGL LOG][Proc: 0]p_matrix: call_update: 60.515 [ms]
[OGL LOG][Proc: 0]p_rhs: call_update: 35.379 [ms]
[OGL LOG][Proc: 0]init_precond: 0.058 [ms]
[OGL LOG][StoppingCriterion.H:588] Creating stopping criterion with minIter 1734 frequency 10
[OGL LOG][Proc: 0]generate_solver: 0.004 [ms]
[OGL LOG][Proc: 0]solve: 20273 [ms]
[OGL LOG][Proc: 0]copy_x_back: 35.769 [ms]
[OGL LOG][lduLduBase.H:311] 
Statistics:
	Time per iteration: 7085 [mu s]
	Time per residual norm calculation: 388.000000 [mu s]
	Time per iteration and DOF: 0.110703 [ns]
	Retrieve results bandwith 2.389000 [GByte/s]
nonehipGKOCG:  Solving for p, Initial residual = 0.00937423, Final residual = 8.13867e-05, No Iterations 2861
linear solve p 20654.1 [ms]
piso step 21179 [ms]
 contErrors 
time step continuity errors : sum local = 1.42144e-10, global = 1.4296e-22, cumulative = 7.35217e-22
piso setup 1290.91 [ms]
 correctNonOrthogonal 
 setRef 
 startSolve 
[OGL LOG][Proc: 0]global_index_init: 0.496 [ms]
[OGL LOG][Proc: 0]p_local_coeffs: call_update: 0 [ms]
[OGL LOG][Proc: 0]p_non_local_coeffs: call_update: 0 [ms]
[OGL LOG][Proc: 0]update_local_matrix_data: 192.696 [ms]
[OGL LOG][Proc: 0]update_non_local_matrix_data: 1.783 [ms]
[OGL LOG][Proc: 0]p_matrix: call_update: 66.579 [ms]
[OGL LOG][Proc: 0]p_rhs: call_update: 32.573 [ms]
[OGL LOG][Proc: 0]init_precond: 0.052 [ms]
[OGL LOG][StoppingCriterion.H:588] Creating stopping criterion with minIter 1716 frequency 10
[OGL LOG][Proc: 0]generate_solver: 0.004 [ms]
[OGL LOG][Proc: 0]solve: 20178 [ms]
[OGL LOG][Proc: 0]copy_x_back: 37.701 [ms]
[OGL LOG][lduLduBase.H:311] 
Statistics:
	Time per iteration: 7077 [mu s]
	Time per residual norm calculation: 375.000000 [mu s]
	Time per iteration and DOF: 0.110578 [ns]
	Retrieve results bandwith 2.267000 [GByte/s]
nonehipGKOCG:  Solving for p, Initial residual = 0.00893095, Final residual = 9.22581e-05, No Iterations 2851
linear solve p 20566.8 [ms]
piso step 21076.7 [ms]
 contErrors 
time step continuity errors : sum local = 1.61173e-10, global = 3.34144e-23, cumulative = 7.68632e-22
ExecutionTime = 879.99 s  ClockTime = 893 s

Time = 0.0005

Courant Number mean: 0.00522643 max: 0.0964278
momentum setup 966.384 [ms]
DILUPBiCGStab:  Solving for Ux, Initial residual = 0.00792508, Final residual = 3.14533e-06, No Iterations 5
DILUPBiCGStab:  Solving for Uy, Initial residual = 0.0122059, Final residual = 2.66581e-06, No Iterations 5
DILUPBiCGStab:  Solving for Uz, Initial residual = 0.0232775, Final residual = 7.15954e-06, No Iterations 5
linear solve U 9298.62 [ms]
piso setup 1287.29 [ms]
 correctNonOrthogonal 
 setRef 
 startSolve 
[OGL LOG][Proc: 0]global_index_init: 1.277 [ms]
[OGL LOG][Proc: 0]p_local_coeffs: call_update: 0 [ms]
[OGL LOG][Proc: 0]p_non_local_coeffs: call_update: 0 [ms]
[OGL LOG][Proc: 0]update_local_matrix_data: 188.463 [ms]
[OGL LOG][Proc: 0]update_non_local_matrix_data: 4.069 [ms]
[OGL LOG][Proc: 0]p_matrix: call_update: 66.079 [ms]
[OGL LOG][Proc: 0]p_rhs: call_update: 28.985 [ms]
[OGL LOG][Proc: 0]init_precond: 0.05 [ms]
[OGL LOG][StoppingCriterion.H:588] Creating stopping criterion with minIter 1710 frequency 10
[OGL LOG][Proc: 0]generate_solver: 0.003 [ms]
[OGL LOG][Proc: 0]solve: 12086.1 [ms]
[OGL LOG][Proc: 0]copy_x_back: 39.717 [ms]
[OGL LOG][lduLduBase.H:311] 
Statistics:
	Time per iteration: 7063 [mu s]
	Time per residual norm calculation: 421.000000 [mu s]
	Time per iteration and DOF: 0.110359 [ns]
	Retrieve results bandwith 2.152000 [GByte/s]
nonehipGKOCG:  Solving for p, Initial residual = 0.00864688, Final residual = 5.01785e-05, No Iterations 1711
linear solve p 12467 [ms]
piso step 12996.3 [ms]
 contErrors 
time step continuity errors : sum local = 9.01986e-11, global = 7.61581e-23, cumulative = 8.4479e-22
piso setup 1303.74 [ms]
 correctNonOrthogonal 
 setRef 
 startSolve 
[OGL LOG][Proc: 0]global_index_init: 0.337 [ms]
[OGL LOG][Proc: 0]p_local_coeffs: call_update: 0 [ms]
[OGL LOG][Proc: 0]p_non_local_coeffs: call_update: 0 [ms]
[OGL LOG][Proc: 0]update_local_matrix_data: 189.205 [ms]
[OGL LOG][Proc: 0]update_non_local_matrix_data: 1.213 [ms]
[OGL LOG][Proc: 0]p_matrix: call_update: 68.589 [ms]
[OGL LOG][Proc: 0]p_rhs: call_update: 30.118 [ms]
[OGL LOG][Proc: 0]init_precond: 0.046 [ms]
[OGL LOG][StoppingCriterion.H:588] Creating stopping criterion with minIter 1026 frequency 10
[OGL LOG][Proc: 0]generate_solver: 0.003 [ms]
[OGL LOG][Proc: 0]solve: 8142.34 [ms]
[OGL LOG][Proc: 0]copy_x_back: 35.702 [ms]
[OGL LOG][lduLduBase.H:311] 
Statistics:
	Time per iteration: 7074 [mu s]
	Time per residual norm calculation: 381.000000 [mu s]
	Time per iteration and DOF: 0.110531 [ns]
	Retrieve results bandwith 2.394000 [GByte/s]
nonehipGKOCG:  Solving for p, Initial residual = 0.00824974, Final residual = 8.67281e-05, No Iterations 1151
linear solve p 8504.69 [ms]
piso step 9007.54 [ms]
 contErrors 
time step continuity errors : sum local = 1.5247e-10, global = 5.31342e-24, cumulative = 8.50103e-22
ExecutionTime = 915.8 s  ClockTime = 929 s

End

Finalising parallel run
================================================================================
