hash: 68b06c78f59dc9f75d54eb9048268207
/*---------------------------------------------------------------------------*\
| =========                 |                                                 |
| \\      /  F ield         | OpenFOAM: The Open Source CFD Toolbox           |
|  \\    /   O peration     | Version:  v2106                                 |
|   \\  /    A nd           | Website:  www.openfoam.com                      |
|    \\/     M anipulation  |                                                 |
\*---------------------------------------------------------------------------*/
Build  : f815a12bba-20210902 OPENFOAM=2106
Arch   : "LSB;label=32;scalar=64"
Exec   : icoFoam -parallel
Date   : Oct 07 2022
Time   : 14:55:42
Host   : nla-gpu2.ianm.kit.edu
PID    : 1655474
I/O    : uncollated
Case   : /home/greole/data/code/ogl_labbook/lidDrivenCavity/single_node/mesh/100/matrix_solver/CG_NoPrecond_OpenFOAM_Default/mpiRank_of/32/base
nProcs : 32
Hosts  :
(
    (nla-gpu2.ianm.kit.edu 32)
)
Pstream initialized with:
    floatTransfer      : 0
    nProcsSimpleSum    : 0
    commsType          : nonBlocking
    polling iterations : 0
trapFpe: Floating point exception trapping enabled (FOAM_SIGFPE).
fileModificationChecking : Monitoring run-time modified files using timeStampMaster (fileModificationSkew 5, maxFileModificationPolls 20)
allowSystemOperations : Allowing user-supplied system call operations

// * * * * * * * * * * * * * * * * * * * * * * * * * * * * * * * * * * * * * //
Create time

Create mesh for time = 0


PISO: Operating solver in PISO mode

Reading transportProperties

Reading field p

Reading field U

Reading/calculating face flux field phi


Starting time loop

Time = 0.0001

Courant Number mean: 0 max: 0
DILUPBiCGStab:  Solving for Ux, Initial residual = 1, Final residual = 5.11961e-06, No Iterations 5
DILUPBiCGStab:  Solving for Uy:  solution singularity
DILUPBiCGStab:  Solving for Uz:  solution singularity
linear solve U 53.882 [ms]
piso setup 54.896 [ms]
 correctNonOrthogonal 
 setRef 
 startSolve 
nonePCG:  Solving for p, Initial residual = 1, Final residual = 9.68454e-05, No Iterations 794
linear solve p 447.76 [ms]
piso step 468.82 [ms]
 contErrors 
time step continuity errors : sum local = 1.71101e-09, global = -4.04264e-22, cumulative = -4.04264e-22
piso setup 46.543 [ms]
 correctNonOrthogonal 
 setRef 
 startSolve 
nonePCG:  Solving for p, Initial residual = 0.559986, Final residual = 9.74524e-05, No Iterations 777
linear solve p 339.828 [ms]
piso step 355.611 [ms]
 contErrors 
time step continuity errors : sum local = 2.6657e-09, global = -9.622e-22, cumulative = -1.36646e-21
ExecutionTime = 1.42 s  ClockTime = 1 s

Time = 0.0002

Courant Number mean: 0.00201332 max: 0.0540371
DILUPBiCGStab:  Solving for Ux, Initial residual = 0.216464, Final residual = 4.03946e-06, No Iterations 5
DILUPBiCGStab:  Solving for Uy, Initial residual = 0.309938, Final residual = 3.41666e-06, No Iterations 5
DILUPBiCGStab:  Solving for Uz, Initial residual = 0.98131, Final residual = 9.74794e-06, No Iterations 5
linear solve U 33.821 [ms]
piso setup 28.201 [ms]
 correctNonOrthogonal 
 setRef 
 startSolve 
nonePCG:  Solving for p, Initial residual = 0.381697, Final residual = 9.12585e-05, No Iterations 769
linear solve p 344.594 [ms]
piso step 354.276 [ms]
 contErrors 
time step continuity errors : sum local = 2.38674e-09, global = -1.18964e-21, cumulative = -2.5561e-21
piso setup 12.859 [ms]
 correctNonOrthogonal 
 setRef 
 startSolve 
nonePCG:  Solving for p, Initial residual = 0.284805, Final residual = 9.60281e-05, No Iterations 764
linear solve p 387.196 [ms]
piso step 395.132 [ms]
 contErrors 
time step continuity errors : sum local = 2.6314e-09, global = -5.95829e-24, cumulative = -2.56206e-21
ExecutionTime = 2.25 s  ClockTime = 2 s

Time = 0.0003

Courant Number mean: 0.00317979 max: 0.0721774
DILUPBiCGStab:  Solving for Ux, Initial residual = 0.0963257, Final residual = 1.67916e-06, No Iterations 5
DILUPBiCGStab:  Solving for Uy, Initial residual = 0.140691, Final residual = 1.46743e-06, No Iterations 5
DILUPBiCGStab:  Solving for Uz, Initial residual = 0.205664, Final residual = 2.19577e-06, No Iterations 5
linear solve U 38.688 [ms]
piso setup 15.375 [ms]
 correctNonOrthogonal 
 setRef 
 startSolve 
nonePCG:  Solving for p, Initial residual = 0.128588, Final residual = 9.75396e-05, No Iterations 743
linear solve p 331.725 [ms]
piso step 339.112 [ms]
 contErrors 
time step continuity errors : sum local = 2.29836e-09, global = -1.01261e-21, cumulative = -3.57467e-21
piso setup 9.357 [ms]
 correctNonOrthogonal 
 setRef 
 startSolve 
nonePCG:  Solving for p, Initial residual = 0.0996221, Final residual = 9.90771e-05, No Iterations 736
linear solve p 328.144 [ms]
piso step 335.265 [ms]
 contErrors 
time step continuity errors : sum local = 2.36494e-09, global = -8.14854e-22, cumulative = -4.38952e-21
ExecutionTime = 3 s  ClockTime = 3 s

Time = 0.0004

Courant Number mean: 0.00397984 max: 0.0793325
DILUPBiCGStab:  Solving for Ux, Initial residual = 0.0593651, Final residual = 8.48476e-07, No Iterations 5
DILUPBiCGStab:  Solving for Uy, Initial residual = 0.0868086, Final residual = 7.57959e-07, No Iterations 5
DILUPBiCGStab:  Solving for Uz, Initial residual = 0.127078, Final residual = 9.71771e-07, No Iterations 5
linear solve U 38.126 [ms]
piso setup 13.893 [ms]
 correctNonOrthogonal 
 setRef 
 startSolve 
nonePCG:  Solving for p, Initial residual = 0.0642989, Final residual = 9.674e-05, No Iterations 729
linear solve p 373.572 [ms]
piso step 381.794 [ms]
 contErrors 
time step continuity errors : sum local = 2.24289e-09, global = -9.74067e-22, cumulative = -5.36359e-21
piso setup 12.551 [ms]
 correctNonOrthogonal 
 setRef 
 startSolve 
nonePCG:  Solving for p, Initial residual = 0.0497322, Final residual = 9.98275e-05, No Iterations 719
linear solve p 317.484 [ms]
piso step 321.517 [ms]
 contErrors 
time step continuity errors : sum local = 2.35041e-09, global = -1.48229e-21, cumulative = -6.84588e-21
ExecutionTime = 3.79 s  ClockTime = 4 s

Time = 0.0005

Courant Number mean: 0.00460129 max: 0.082885
DILUPBiCGStab:  Solving for Ux, Initial residual = 0.0428599, Final residual = 5.81762e-07, No Iterations 5
DILUPBiCGStab:  Solving for Uy, Initial residual = 0.0618649, Final residual = 4.25782e-07, No Iterations 5
DILUPBiCGStab:  Solving for Uz, Initial residual = 0.0971404, Final residual = 6.06993e-07, No Iterations 5
linear solve U 38.814 [ms]
piso setup 10.25 [ms]
 correctNonOrthogonal 
 setRef 
 startSolve 
nonePCG:  Solving for p, Initial residual = 0.0389514, Final residual = 9.92428e-05, No Iterations 402
linear solve p 179.455 [ms]
piso step 188.002 [ms]
 contErrors 
time step continuity errors : sum local = 2.67138e-09, global = -1.26025e-21, cumulative = -8.10613e-21
piso setup 13.017 [ms]
 correctNonOrthogonal 
 setRef 
 startSolve 
nonePCG:  Solving for p, Initial residual = 0.0305797, Final residual = 9.88103e-05, No Iterations 339
linear solve p 149.835 [ms]
piso step 156.227 [ms]
 contErrors 
time step continuity errors : sum local = 2.46979e-09, global = -7.29718e-22, cumulative = -8.83585e-21
ExecutionTime = 4.22 s  ClockTime = 4 s

Time = 0.0006

Courant Number mean: 0.00511864 max: 0.0850107
DILUPBiCGStab:  Solving for Ux, Initial residual = 0.0336701, Final residual = 4.249e-07, No Iterations 5
DILUPBiCGStab:  Solving for Uy, Initial residual = 0.0480492, Final residual = 2.6857e-07, No Iterations 5
DILUPBiCGStab:  Solving for Uz, Initial residual = 0.0802598, Final residual = 4.7699e-07, No Iterations 5
linear solve U 35.542 [ms]
piso setup 9.833 [ms]
 correctNonOrthogonal 
 setRef 
 startSolve 
nonePCG:  Solving for p, Initial residual = 0.0269297, Final residual = 9.78073e-05, No Iterations 341
linear solve p 153.144 [ms]
piso step 155.985 [ms]
 contErrors 
time step continuity errors : sum local = 2.55425e-09, global = -6.76789e-22, cumulative = -9.51264e-21
piso setup 5.518 [ms]
 correctNonOrthogonal 
 setRef 
 startSolve 
nonePCG:  Solving for p, Initial residual = 0.0213698, Final residual = 9.56377e-05, No Iterations 312
linear solve p 139.645 [ms]
piso step 144.063 [ms]
 contErrors 
time step continuity errors : sum local = 2.42712e-09, global = -1.45737e-21, cumulative = -1.097e-20
ExecutionTime = 4.59 s  ClockTime = 5 s

Time = 0.0007

Courant Number mean: 0.00556497 max: 0.0864549
DILUPBiCGStab:  Solving for Ux, Initial residual = 0.0277666, Final residual = 3.23588e-07, No Iterations 5
DILUPBiCGStab:  Solving for Uy, Initial residual = 0.0392374, Final residual = 1.94328e-07, No Iterations 5
DILUPBiCGStab:  Solving for Uz, Initial residual = 0.0677421, Final residual = 3.85035e-07, No Iterations 5
linear solve U 37.485 [ms]
piso setup 8.334 [ms]
 correctNonOrthogonal 
 setRef 
 startSolve 
nonePCG:  Solving for p, Initial residual = 0.0207675, Final residual = 9.69154e-05, No Iterations 301
linear solve p 141.997 [ms]
piso step 149.102 [ms]
 contErrors 
time step continuity errors : sum local = 2.58906e-09, global = -1.60495e-21, cumulative = -1.2575e-20
piso setup 4.981 [ms]
 correctNonOrthogonal 
 setRef 
 startSolve 
nonePCG:  Solving for p, Initial residual = 0.0165043, Final residual = 9.73015e-05, No Iterations 293
linear solve p 142.304 [ms]
piso step 148.616 [ms]
 contErrors 
time step continuity errors : sum local = 2.51717e-09, global = -7.68327e-22, cumulative = -1.33433e-20
ExecutionTime = 4.95 s  ClockTime = 5 s

Time = 0.0008

Courant Number mean: 0.0059623 max: 0.0875193
DILUPBiCGStab:  Solving for Ux, Initial residual = 0.0236243, Final residual = 2.61674e-07, No Iterations 5
DILUPBiCGStab:  Solving for Uy, Initial residual = 0.0331355, Final residual = 1.5442e-07, No Iterations 5
DILUPBiCGStab:  Solving for Uz, Initial residual = 0.0588704, Final residual = 3.08945e-07, No Iterations 5
linear solve U 43.678 [ms]
piso setup 11.499 [ms]
 correctNonOrthogonal 
 setRef 
 startSolve 
nonePCG:  Solving for p, Initial residual = 0.0166958, Final residual = 9.76721e-05, No Iterations 294
linear solve p 152.766 [ms]
piso step 160.241 [ms]
 contErrors 
time step continuity errors : sum local = 2.61816e-09, global = -7.90319e-22, cumulative = -1.41336e-20
piso setup 10.52 [ms]
 correctNonOrthogonal 
 setRef 
 startSolve 
nonePCG:  Solving for p, Initial residual = 0.0133994, Final residual = 9.88468e-05, No Iterations 287
linear solve p 130.419 [ms]
piso step 134.287 [ms]
 contErrors 
time step continuity errors : sum local = 2.58852e-09, global = -1.6532e-21, cumulative = -1.57868e-20
ExecutionTime = 5.33 s  ClockTime = 5 s

Time = 0.0009

Courant Number mean: 0.00631847 max: 0.0883466
DILUPBiCGStab:  Solving for Ux, Initial residual = 0.0205606, Final residual = 2.16779e-07, No Iterations 5
DILUPBiCGStab:  Solving for Uy, Initial residual = 0.0286497, Final residual = 1.29183e-07, No Iterations 5
DILUPBiCGStab:  Solving for Uz, Initial residual = 0.0520057, Final residual = 2.55243e-07, No Iterations 5
linear solve U 36.296 [ms]
piso setup 8.867 [ms]
 correctNonOrthogonal 
 setRef 
 startSolve 
nonePCG:  Solving for p, Initial residual = 0.0139027, Final residual = 9.88346e-05, No Iterations 288
linear solve p 133.485 [ms]
piso step 141.353 [ms]
 contErrors 
time step continuity errors : sum local = 2.66793e-09, global = -1.4486e-21, cumulative = -1.72354e-20
piso setup 8.744 [ms]
 correctNonOrthogonal 
 setRef 
 startSolve 
nonePCG:  Solving for p, Initial residual = 0.0112152, Final residual = 9.77772e-05, No Iterations 283
linear solve p 128.672 [ms]
piso step 136.913 [ms]
 contErrors 
time step continuity errors : sum local = 2.59292e-09, global = -2.0608e-21, cumulative = -1.92962e-20
ExecutionTime = 5.68 s  ClockTime = 6 s

Time = 0.001

Courant Number mean: 0.00664438 max: 0.089014
DILUPBiCGStab:  Solving for Ux, Initial residual = 0.0181846, Final residual = 1.82148e-07, No Iterations 5
DILUPBiCGStab:  Solving for Uy, Initial residual = 0.0252122, Final residual = 1.11408e-07, No Iterations 5
DILUPBiCGStab:  Solving for Uz, Initial residual = 0.0465187, Final residual = 2.20618e-07, No Iterations 5
linear solve U 32.529 [ms]
piso setup 9.549 [ms]
 correctNonOrthogonal 
 setRef 
 startSolve 
nonePCG:  Solving for p, Initial residual = 0.0118838, Final residual = 9.89258e-05, No Iterations 285
linear solve p 127.701 [ms]
piso step 131.482 [ms]
 contErrors 
time step continuity errors : sum local = 2.68624e-09, global = -1.77068e-21, cumulative = -2.10669e-20
piso setup 5.42 [ms]
 correctNonOrthogonal 
 setRef 
 startSolve 
nonePCG:  Solving for p, Initial residual = 0.00962502, Final residual = 9.94805e-05, No Iterations 280
linear solve p 129.459 [ms]
piso step 132.187 [ms]
 contErrors 
time step continuity errors : sum local = 2.65914e-09, global = -2.54054e-21, cumulative = -2.36074e-20
ExecutionTime = 6.02 s  ClockTime = 6 s

Time = 0.0011

Courant Number mean: 0.00694533 max: 0.0895673
DILUPBiCGStab:  Solving for Ux, Initial residual = 0.016298, Final residual = 1.5498e-07, No Iterations 5
DILUPBiCGStab:  Solving for Uy, Initial residual = 0.0224932, Final residual = 9.81169e-08, No Iterations 5
DILUPBiCGStab:  Solving for Uz, Initial residual = 0.042037, Final residual = 1.96904e-07, No Iterations 5
linear solve U 33.896 [ms]
piso setup 7.591 [ms]
 correctNonOrthogonal 
 setRef 
 startSolve 
nonePCG:  Solving for p, Initial residual = 0.0102911, Final residual = 9.85966e-05, No Iterations 283
linear solve p 128.328 [ms]
piso step 133.997 [ms]
 contErrors 
time step continuity errors : sum local = 2.69397e-09, global = -1.18659e-21, cumulative = -2.4794e-20
piso setup 10.158 [ms]
 correctNonOrthogonal 
 setRef 
 startSolve 
nonePCG:  Solving for p, Initial residual = 0.00836048, Final residual = 9.53429e-05, No Iterations 278
linear solve p 126.172 [ms]
piso step 129.027 [ms]
 contErrors 
time step continuity errors : sum local = 2.5796e-09, global = -4.084e-22, cumulative = -2.52024e-20
ExecutionTime = 6.35 s  ClockTime = 6 s

Time = 0.0012

Courant Number mean: 0.0072238 max: 0.0900356
DILUPBiCGStab:  Solving for Ux, Initial residual = 0.0147479, Final residual = 1.33541e-07, No Iterations 5
DILUPBiCGStab:  Solving for Uy, Initial residual = 0.0202888, Final residual = 8.7765e-08, No Iterations 5
DILUPBiCGStab:  Solving for Uz, Initial residual = 0.038311, Final residual = 1.79028e-07, No Iterations 5
linear solve U 34.965 [ms]
piso setup 5 [ms]
 correctNonOrthogonal 
 setRef 
 startSolve 
nonePCG:  Solving for p, Initial residual = 0.00904495, Final residual = 9.7696e-05, No Iterations 279
linear solve p 125.998 [ms]
piso step 129.257 [ms]
 contErrors 
time step continuity errors : sum local = 2.68532e-09, global = -1.84486e-21, cumulative = -2.70473e-20
piso setup 6.007 [ms]
 correctNonOrthogonal 
 setRef 
 startSolve 
nonePCG:  Solving for p, Initial residual = 0.00738502, Final residual = 9.86186e-05, No Iterations 275
linear solve p 127.88 [ms]
piso step 130.912 [ms]
 contErrors 
time step continuity errors : sum local = 2.67759e-09, global = -2.24977e-21, cumulative = -2.9297e-20
ExecutionTime = 6.67 s  ClockTime = 7 s

Time = 0.0013

Courant Number mean: 0.00748302 max: 0.0904386
DILUPBiCGStab:  Solving for Ux, Initial residual = 0.0134667, Final residual = 1.16451e-07, No Iterations 5
DILUPBiCGStab:  Solving for Uy, Initial residual = 0.0184655, Final residual = 7.94789e-08, No Iterations 5
DILUPBiCGStab:  Solving for Uz, Initial residual = 0.0351691, Final residual = 1.64383e-07, No Iterations 5
linear solve U 33.118 [ms]
piso setup 6.875 [ms]
 correctNonOrthogonal 
 setRef 
 startSolve 
nonePCG:  Solving for p, Initial residual = 0.00809394, Final residual = 9.76318e-05, No Iterations 276
linear solve p 126.875 [ms]
piso step 131.79 [ms]
 contErrors 
time step continuity errors : sum local = 2.69623e-09, global = -1.44575e-21, cumulative = -3.07428e-20
piso setup 9.425 [ms]
 correctNonOrthogonal 
 setRef 
 startSolve 
nonePCG:  Solving for p, Initial residual = 0.00662882, Final residual = 9.95614e-05, No Iterations 271
linear solve p 128.371 [ms]
piso step 130.411 [ms]
 contErrors 
time step continuity errors : sum local = 2.71681e-09, global = -1.85706e-21, cumulative = -3.25998e-20
ExecutionTime = 6.99 s  ClockTime = 7 s

Time = 0.0014

Courant Number mean: 0.00772784 max: 0.0907903
DILUPBiCGStab:  Solving for Ux, Initial residual = 0.0123791, Final residual = 1.02685e-07, No Iterations 5
DILUPBiCGStab:  Solving for Uy, Initial residual = 0.0169327, Final residual = 7.27048e-08, No Iterations 5
DILUPBiCGStab:  Solving for Uz, Initial residual = 0.0324831, Final residual = 1.51557e-07, No Iterations 5
linear solve U 32.155 [ms]
piso setup 4.622 [ms]
 correctNonOrthogonal 
 setRef 
 startSolve 
nonePCG:  Solving for p, Initial residual = 0.00727954, Final residual = 9.80736e-05, No Iterations 274
linear solve p 142.009 [ms]
piso step 145.896 [ms]
 contErrors 
time step continuity errors : sum local = 2.71829e-09, global = -2.36139e-21, cumulative = -3.49612e-20
piso setup 5.695 [ms]
 correctNonOrthogonal 
 setRef 
 startSolve 
nonePCG:  Solving for p, Initial residual = 0.00597883, Final residual = 9.71315e-05, No Iterations 270
linear solve p 145.279 [ms]
piso step 148.318 [ms]
 contErrors 
time step continuity errors : sum local = 2.67099e-09, global = -5.11342e-22, cumulative = -3.54726e-20
ExecutionTime = 7.34 s  ClockTime = 7 s

Time = 0.0015

Courant Number mean: 0.00795861 max: 0.0911006
DILUPBiCGStab:  Solving for Ux, Initial residual = 0.0114468, Final residual = 9.14637e-08, No Iterations 5
DILUPBiCGStab:  Solving for Uy, Initial residual = 0.0156261, Final residual = 6.70756e-08, No Iterations 5
DILUPBiCGStab:  Solving for Uz, Initial residual = 0.0301614, Final residual = 1.39895e-07, No Iterations 5
linear solve U 42.131 [ms]
piso setup 8.555 [ms]
 correctNonOrthogonal 
 setRef 
 startSolve 
nonePCG:  Solving for p, Initial residual = 0.00657929, Final residual = 9.8096e-05, No Iterations 271
linear solve p 121.728 [ms]
piso step 125.199 [ms]
 contErrors 
time step continuity errors : sum local = 2.72829e-09, global = -2.26813e-21, cumulative = -3.77407e-20
piso setup 6.299 [ms]
 correctNonOrthogonal 
 setRef 
 startSolve 
nonePCG:  Solving for p, Initial residual = 0.00542526, Final residual = 9.8505e-05, No Iterations 266
linear solve p 123.353 [ms]
piso step 127.326 [ms]
 contErrors 
time step continuity errors : sum local = 2.71705e-09, global = -2.21573e-21, cumulative = -3.99564e-20
ExecutionTime = 7.67 s  ClockTime = 8 s

Time = 0.0016

Courant Number mean: 0.00817649 max: 0.0913769
DILUPBiCGStab:  Solving for Ux, Initial residual = 0.0106404, Final residual = 8.21873e-08, No Iterations 5
DILUPBiCGStab:  Solving for Uy, Initial residual = 0.0144993, Final residual = 6.23318e-08, No Iterations 5
DILUPBiCGStab:  Solving for Uz, Initial residual = 0.028136, Final residual = 1.2922e-07, No Iterations 5
linear solve U 31.951 [ms]
piso setup 5.677 [ms]
 correctNonOrthogonal 
 setRef 
 startSolve 
nonePCG:  Solving for p, Initial residual = 0.00603099, Final residual = 9.81331e-05, No Iterations 271
linear solve p 125.657 [ms]
piso step 130.233 [ms]
 contErrors 
time step continuity errors : sum local = 2.73859e-09, global = -2.3282e-21, cumulative = -4.22846e-20
piso setup 9.281 [ms]
 correctNonOrthogonal 
 setRef 
 startSolve 
nonePCG:  Solving for p, Initial residual = 0.00496395, Final residual = 9.47623e-05, No Iterations 265
linear solve p 125.214 [ms]
piso step 129.763 [ms]
 contErrors 
time step continuity errors : sum local = 2.63575e-09, global = -2.38518e-22, cumulative = -4.25232e-20
ExecutionTime = 7.99 s  ClockTime = 8 s

Time = 0.0017

Courant Number mean: 0.00838249 max: 0.0916252
DILUPBiCGStab:  Solving for Ux, Initial residual = 0.00993237, Final residual = 7.4453e-08, No Iterations 5
DILUPBiCGStab:  Solving for Uy, Initial residual = 0.0135175, Final residual = 5.8277e-08, No Iterations 5
DILUPBiCGStab:  Solving for Uz, Initial residual = 0.0263532, Final residual = 1.19367e-07, No Iterations 5
linear solve U 32.054 [ms]
piso setup 6.507 [ms]
 correctNonOrthogonal 
 setRef 
 startSolve 
nonePCG:  Solving for p, Initial residual = 0.00548752, Final residual = 9.81293e-05, No Iterations 269
linear solve p 119.939 [ms]
piso step 122.712 [ms]
 contErrors 
time step continuity errors : sum local = 2.74625e-09, global = -2.11984e-21, cumulative = -4.4643e-20
piso setup 4.695 [ms]
 correctNonOrthogonal 
 setRef 
 startSolve 
nonePCG:  Solving for p, Initial residual = 0.00454013, Final residual = 9.86492e-05, No Iterations 262
linear solve p 118.182 [ms]
piso step 120.009 [ms]
 contErrors 
time step continuity errors : sum local = 2.74124e-09, global = -1.2935e-21, cumulative = -4.59365e-20
ExecutionTime = 8.28 s  ClockTime = 8 s

Time = 0.0018

Courant Number mean: 0.00857955 max: 0.0918497
DILUPBiCGStab:  Solving for Ux, Initial residual = 0.00931094, Final residual = 6.79453e-08, No Iterations 5
DILUPBiCGStab:  Solving for Uy, Initial residual = 0.0126547, Final residual = 5.47773e-08, No Iterations 5
DILUPBiCGStab:  Solving for Uz, Initial residual = 0.0247728, Final residual = 1.10438e-07, No Iterations 5
linear solve U 35.079 [ms]
piso setup 6.453 [ms]
 correctNonOrthogonal 
 setRef 
 startSolve 
nonePCG:  Solving for p, Initial residual = 0.00508198, Final residual = 9.9085e-05, No Iterations 265
linear solve p 122.014 [ms]
piso step 124.981 [ms]
 contErrors 
time step continuity errors : sum local = 2.77739e-09, global = -1.87005e-21, cumulative = -4.78065e-20
piso setup 6.627 [ms]
 correctNonOrthogonal 
 setRef 
 startSolve 
nonePCG:  Solving for p, Initial residual = 0.0042138, Final residual = 9.69001e-05, No Iterations 261
linear solve p 121.096 [ms]
piso step 124.087 [ms]
 contErrors 
time step continuity errors : sum local = 2.70666e-09, global = -2.08079e-21, cumulative = -4.98873e-20
ExecutionTime = 8.59 s  ClockTime = 9 s

Time = 0.0019

Courant Number mean: 0.00876813 max: 0.092054
DILUPBiCGStab:  Solving for Ux, Initial residual = 0.00875811, Final residual = 6.23854e-08, No Iterations 5
DILUPBiCGStab:  Solving for Uy, Initial residual = 0.0118904, Final residual = 5.1723e-08, No Iterations 5
DILUPBiCGStab:  Solving for Uz, Initial residual = 0.0233621, Final residual = 1.02379e-07, No Iterations 5
linear solve U 33.285 [ms]
piso setup 6.052 [ms]
 correctNonOrthogonal 
 setRef 
 startSolve 
nonePCG:  Solving for p, Initial residual = 0.00474468, Final residual = 9.8888e-05, No Iterations 265
linear solve p 119.504 [ms]
piso step 122.311 [ms]
 contErrors 
time step continuity errors : sum local = 2.77912e-09, global = -2.94311e-21, cumulative = -5.28305e-20
piso setup 9.302 [ms]
 correctNonOrthogonal 
 setRef 
 startSolve 
nonePCG:  Solving for p, Initial residual = 0.003941, Final residual = 9.96207e-05, No Iterations 259
linear solve p 120.013 [ms]
piso step 124.047 [ms]
 contErrors 
time step continuity errors : sum local = 2.78202e-09, global = -2.28211e-21, cumulative = -5.51126e-20
ExecutionTime = 8.9 s  ClockTime = 9 s

Time = 0.002

Courant Number mean: 0.00894849 max: 0.0922409
DILUPBiCGStab:  Solving for Ux, Initial residual = 0.00826098, Final residual = 5.76009e-08, No Iterations 5
DILUPBiCGStab:  Solving for Uy, Initial residual = 0.0112088, Final residual = 4.90319e-08, No Iterations 5
DILUPBiCGStab:  Solving for Uz, Initial residual = 0.0220957, Final residual = 9.51243e-08, No Iterations 5
linear solve U 32.027 [ms]
piso setup 9.215 [ms]
 correctNonOrthogonal 
 setRef 
 startSolve 
nonePCG:  Solving for p, Initial residual = 0.00439659, Final residual = 9.87815e-05, No Iterations 263
linear solve p 122.36 [ms]
piso step 125.491 [ms]
 contErrors 
time step continuity errors : sum local = 2.78246e-09, global = -2.00633e-21, cumulative = -5.71189e-20
piso setup 6.27 [ms]
 correctNonOrthogonal 
 setRef 
 startSolve 
nonePCG:  Solving for p, Initial residual = 0.00365473, Final residual = 9.94666e-05, No Iterations 252
linear solve p 113.692 [ms]
piso step 117.239 [ms]
 contErrors 
time step continuity errors : sum local = 2.78529e-09, global = -2.02649e-21, cumulative = -5.91454e-20
ExecutionTime = 9.2 s  ClockTime = 9 s

End

Finalising parallel run
================================================================================
hash: f6e9d3c164fcdd3c7d0f2a945897cb96
/*---------------------------------------------------------------------------*\
| =========                 |                                                 |
| \\      /  F ield         | OpenFOAM: The Open Source CFD Toolbox           |
|  \\    /   O peration     | Version:  v2106                                 |
|   \\  /    A nd           | Website:  www.openfoam.com                      |
|    \\/     M anipulation  |                                                 |
\*---------------------------------------------------------------------------*/
Build  : f815a12bba-20210902 OPENFOAM=2106
Arch   : "LSB;label=32;scalar=64"
Exec   : icoFoam -parallel
Date   : Oct 07 2022
Time   : 14:55:54
Host   : nla-gpu2.ianm.kit.edu
PID    : 1655719
I/O    : uncollated
Case   : /home/greole/data/code/ogl_labbook/lidDrivenCavity/single_node/mesh/150/matrix_solver/CG_NoPrecond_OpenFOAM_Default/mpiRank_of/32/base
nProcs : 32
Hosts  :
(
    (nla-gpu2.ianm.kit.edu 32)
)
Pstream initialized with:
    floatTransfer      : 0
    nProcsSimpleSum    : 0
    commsType          : nonBlocking
    polling iterations : 0
trapFpe: Floating point exception trapping enabled (FOAM_SIGFPE).
fileModificationChecking : Monitoring run-time modified files using timeStampMaster (fileModificationSkew 5, maxFileModificationPolls 20)
allowSystemOperations : Allowing user-supplied system call operations

// * * * * * * * * * * * * * * * * * * * * * * * * * * * * * * * * * * * * * //
Create time

Create mesh for time = 0


PISO: Operating solver in PISO mode

Reading transportProperties

Reading field p

Reading field U

Reading/calculating face flux field phi


Starting time loop

Time = 6.66667e-05

Courant Number mean: 0 max: 0
DILUPBiCGStab:  Solving for Ux, Initial residual = 1, Final residual = 3.89947e-05, No Iterations 5
DILUPBiCGStab:  Solving for Uy:  solution singularity
DILUPBiCGStab:  Solving for Uz:  solution singularity
linear solve U 117.475 [ms]
piso setup 67.144 [ms]
 correctNonOrthogonal 
 setRef 
 startSolve 
nonePCG:  Solving for p, Initial residual = 1, Final residual = 9.93446e-05, No Iterations 1199
linear solve p 1930.98 [ms]
piso step 1962.86 [ms]
 contErrors 
time step continuity errors : sum local = 9.91854e-10, global = 5.06726e-22, cumulative = 5.06726e-22
piso setup 65.07 [ms]
 correctNonOrthogonal 
 setRef 
 startSolve 
nonePCG:  Solving for p, Initial residual = 0.611423, Final residual = 9.85777e-05, No Iterations 1177
linear solve p 1881.47 [ms]
piso step 1903.07 [ms]
 contErrors 
time step continuity errors : sum local = 1.4639e-09, global = 1.26235e-22, cumulative = 6.3296e-22
ExecutionTime = 4.99 s  ClockTime = 5 s

Time = 0.000133333

Courant Number mean: 0.00174417 max: 0.0611824
DILUPBiCGStab:  Solving for Ux, Initial residual = 0.201555, Final residual = 2.5587e-05, No Iterations 5
DILUPBiCGStab:  Solving for Uy, Initial residual = 0.321506, Final residual = 2.53455e-05, No Iterations 5
DILUPBiCGStab:  Solving for Uz, Initial residual = 0.989645, Final residual = 8.36039e-05, No Iterations 5
linear solve U 180.616 [ms]
piso setup 39.425 [ms]
 correctNonOrthogonal 
 setRef 
 startSolve 
nonePCG:  Solving for p, Initial residual = 0.453047, Final residual = 9.36621e-05, No Iterations 1164
linear solve p 1783.25 [ms]
piso step 1804.15 [ms]
 contErrors 
time step continuity errors : sum local = 1.34056e-09, global = 7.58576e-23, cumulative = 7.08818e-22
piso setup 29.214 [ms]
 correctNonOrthogonal 
 setRef 
 startSolve 
nonePCG:  Solving for p, Initial residual = 0.360331, Final residual = 9.90055e-05, No Iterations 1159
linear solve p 1823.2 [ms]
piso step 1840.44 [ms]
 contErrors 
time step continuity errors : sum local = 1.47002e-09, global = 5.40295e-23, cumulative = 7.62848e-22
ExecutionTime = 8.92 s  ClockTime = 9 s

Time = 0.0002

Courant Number mean: 0.00271566 max: 0.0777794
DILUPBiCGStab:  Solving for Ux, Initial residual = 0.0868446, Final residual = 9.95981e-06, No Iterations 5
DILUPBiCGStab:  Solving for Uy, Initial residual = 0.138256, Final residual = 7.27525e-06, No Iterations 5
DILUPBiCGStab:  Solving for Uz, Initial residual = 0.144776, Final residual = 1.45401e-05, No Iterations 5
linear solve U 137.619 [ms]
piso setup 31.289 [ms]
 correctNonOrthogonal 
 setRef 
 startSolve 
nonePCG:  Solving for p, Initial residual = 0.173752, Final residual = 9.93513e-05, No Iterations 1138
linear solve p 1883.22 [ms]
piso step 1900.99 [ms]
 contErrors 
time step continuity errors : sum local = 1.17002e-09, global = 9.85624e-23, cumulative = 8.6141e-22
piso setup 28.928 [ms]
 correctNonOrthogonal 
 setRef 
 startSolve 
nonePCG:  Solving for p, Initial residual = 0.141199, Final residual = 9.99723e-05, No Iterations 1116
linear solve p 1700.53 [ms]
piso step 1716.12 [ms]
 contErrors 
time step continuity errors : sum local = 1.17505e-09, global = 4.76069e-22, cumulative = 1.33748e-21
ExecutionTime = 12.76 s  ClockTime = 13 s

Time = 0.000266667

Courant Number mean: 0.0033815 max: 0.0835577
DILUPBiCGStab:  Solving for Ux, Initial residual = 0.0544582, Final residual = 4.48347e-06, No Iterations 5
DILUPBiCGStab:  Solving for Uy, Initial residual = 0.086037, Final residual = 4.06591e-06, No Iterations 5
DILUPBiCGStab:  Solving for Uz, Initial residual = 0.11682, Final residual = 7.57037e-06, No Iterations 5
linear solve U 142.11 [ms]
piso setup 30.633 [ms]
 correctNonOrthogonal 
 setRef 
 startSolve 
nonePCG:  Solving for p, Initial residual = 0.0874772, Final residual = 9.95991e-05, No Iterations 1106
linear solve p 1749.04 [ms]
piso step 1766.06 [ms]
 contErrors 
time step continuity errors : sum local = 1.11815e-09, global = 1.69722e-22, cumulative = 1.5072e-21
piso setup 23.058 [ms]
 correctNonOrthogonal 
 setRef 
 startSolve 
nonePCG:  Solving for p, Initial residual = 0.070159, Final residual = 9.85419e-05, No Iterations 1099
linear solve p 1693.71 [ms]
piso step 1709.9 [ms]
 contErrors 
time step continuity errors : sum local = 1.1205e-09, global = -2.26684e-22, cumulative = 1.28052e-21
ExecutionTime = 16.47 s  ClockTime = 17 s

Time = 0.000333333

Courant Number mean: 0.00390573 max: 0.0863402
DILUPBiCGStab:  Solving for Ux, Initial residual = 0.0400408, Final residual = 3.07964e-06, No Iterations 5
DILUPBiCGStab:  Solving for Uy, Initial residual = 0.0618407, Final residual = 2.44931e-06, No Iterations 5
DILUPBiCGStab:  Solving for Uz, Initial residual = 0.093447, Final residual = 4.58843e-06, No Iterations 5
linear solve U 148.555 [ms]
piso setup 27.437 [ms]
 correctNonOrthogonal 
 setRef 
 startSolve 
nonePCG:  Solving for p, Initial residual = 0.0476588, Final residual = 9.81471e-05, No Iterations 537
linear solve p 868.978 [ms]
piso step 884.252 [ms]
 contErrors 
time step continuity errors : sum local = 1.21834e-09, global = -5.53418e-23, cumulative = 1.22517e-21
piso setup 23.927 [ms]
 correctNonOrthogonal 
 setRef 
 startSolve 
nonePCG:  Solving for p, Initial residual = 0.0395761, Final residual = 9.81935e-05, No Iterations 509
linear solve p 816.64 [ms]
piso step 831.414 [ms]
 contErrors 
time step continuity errors : sum local = 1.14693e-09, global = -1.50051e-22, cumulative = 1.07512e-21
ExecutionTime = 18.43 s  ClockTime = 19 s

Time = 0.0004

Courant Number mean: 0.00434732 max: 0.0880159
DILUPBiCGStab:  Solving for Ux, Initial residual = 0.0318467, Final residual = 1.98518e-06, No Iterations 5
DILUPBiCGStab:  Solving for Uy, Initial residual = 0.0483434, Final residual = 1.54889e-06, No Iterations 5
DILUPBiCGStab:  Solving for Uz, Initial residual = 0.0786536, Final residual = 3.44651e-06, No Iterations 5
linear solve U 138.593 [ms]
piso setup 24.551 [ms]
 correctNonOrthogonal 
 setRef 
 startSolve 
nonePCG:  Solving for p, Initial residual = 0.0313499, Final residual = 9.9962e-05, No Iterations 483
linear solve p 742.27 [ms]
piso step 757.148 [ms]
 contErrors 
time step continuity errors : sum local = 1.1811e-09, global = -2.08654e-22, cumulative = 8.6647e-22
piso setup 21.998 [ms]
 correctNonOrthogonal 
 setRef 
 startSolve 
nonePCG:  Solving for p, Initial residual = 0.0263751, Final residual = 9.99708e-05, No Iterations 471
linear solve p 721.543 [ms]
piso step 731.944 [ms]
 contErrors 
time step continuity errors : sum local = 1.16256e-09, global = 1.055e-22, cumulative = 9.7197e-22
ExecutionTime = 20.15 s  ClockTime = 21 s

Time = 0.000466667

Courant Number mean: 0.00473116 max: 0.0891667
DILUPBiCGStab:  Solving for Ux, Initial residual = 0.0265061, Final residual = 1.54297e-06, No Iterations 5
DILUPBiCGStab:  Solving for Uy, Initial residual = 0.0396432, Final residual = 1.13046e-06, No Iterations 5
DILUPBiCGStab:  Solving for Uz, Initial residual = 0.0668612, Final residual = 2.82034e-06, No Iterations 5
linear solve U 140.174 [ms]
piso setup 27.702 [ms]
 correctNonOrthogonal 
 setRef 
 startSolve 
nonePCG:  Solving for p, Initial residual = 0.0241573, Final residual = 9.8608e-05, No Iterations 467
linear solve p 711.064 [ms]
piso step 728.141 [ms]
 contErrors 
time step continuity errors : sum local = 1.19607e-09, global = 2.95241e-22, cumulative = 1.26721e-21
piso setup 25.564 [ms]
 correctNonOrthogonal 
 setRef 
 startSolve 
nonePCG:  Solving for p, Initial residual = 0.0205423, Final residual = 9.8872e-05, No Iterations 452
linear solve p 697.118 [ms]
piso step 710.348 [ms]
 contErrors 
time step continuity errors : sum local = 1.16708e-09, global = -4.59664e-22, cumulative = 8.07548e-22
ExecutionTime = 21.82 s  ClockTime = 22 s

Time = 0.000533333

Courant Number mean: 0.00507434 max: 0.0900213
DILUPBiCGStab:  Solving for Ux, Initial residual = 0.0227241, Final residual = 1.24579e-06, No Iterations 5
DILUPBiCGStab:  Solving for Uy, Initial residual = 0.0335808, Final residual = 8.66448e-07, No Iterations 5
DILUPBiCGStab:  Solving for Uz, Initial residual = 0.0582586, Final residual = 2.42347e-06, No Iterations 5
linear solve U 137.295 [ms]
piso setup 26.334 [ms]
 correctNonOrthogonal 
 setRef 
 startSolve 
nonePCG:  Solving for p, Initial residual = 0.0189147, Final residual = 9.69809e-05, No Iterations 452
linear solve p 709.612 [ms]
piso step 722.401 [ms]
 contErrors 
time step continuity errors : sum local = 1.16818e-09, global = 1.86178e-22, cumulative = 9.93725e-22
piso setup 20.966 [ms]
 correctNonOrthogonal 
 setRef 
 startSolve 
nonePCG:  Solving for p, Initial residual = 0.01628, Final residual = 9.92712e-05, No Iterations 443
linear solve p 697.633 [ms]
piso step 713.353 [ms]
 contErrors 
time step continuity errors : sum local = 1.17752e-09, global = -1.65436e-24, cumulative = 9.92071e-22
ExecutionTime = 23.48 s  ClockTime = 24 s

Time = 0.0006

Courant Number mean: 0.00538422 max: 0.0906888
DILUPBiCGStab:  Solving for Ux, Initial residual = 0.0198902, Final residual = 1.01501e-06, No Iterations 5
DILUPBiCGStab:  Solving for Uy, Initial residual = 0.0291029, Final residual = 7.04748e-07, No Iterations 5
DILUPBiCGStab:  Solving for Uz, Initial residual = 0.051653, Final residual = 2.13794e-06, No Iterations 5
linear solve U 140.685 [ms]
piso setup 22.266 [ms]
 correctNonOrthogonal 
 setRef 
 startSolve 
nonePCG:  Solving for p, Initial residual = 0.0159037, Final residual = 9.73715e-05, No Iterations 443
linear solve p 676.908 [ms]
piso step 689.48 [ms]
 contErrors 
time step continuity errors : sum local = 1.1836e-09, global = -5.2557e-22, cumulative = 4.66501e-22
piso setup 24.096 [ms]
 correctNonOrthogonal 
 setRef 
 startSolve 
nonePCG:  Solving for p, Initial residual = 0.013746, Final residual = 9.70926e-05, No Iterations 437
linear solve p 671.867 [ms]
piso step 684.599 [ms]
 contErrors 
time step continuity errors : sum local = 1.16222e-09, global = 5.90297e-22, cumulative = 1.0568e-21
ExecutionTime = 25.08 s  ClockTime = 26 s

Time = 0.000666667

Courant Number mean: 0.00566923 max: 0.0912289
DILUPBiCGStab:  Solving for Ux, Initial residual = 0.017683, Final residual = 8.38301e-07, No Iterations 5
DILUPBiCGStab:  Solving for Uy, Initial residual = 0.0256634, Final residual = 5.91544e-07, No Iterations 5
DILUPBiCGStab:  Solving for Uz, Initial residual = 0.046337, Final residual = 1.8698e-06, No Iterations 5
linear solve U 144.765 [ms]
piso setup 21.951 [ms]
 correctNonOrthogonal 
 setRef 
 startSolve 
nonePCG:  Solving for p, Initial residual = 0.0135396, Final residual = 9.6949e-05, No Iterations 437
linear solve p 662.069 [ms]
piso step 674.014 [ms]
 contErrors 
time step continuity errors : sum local = 1.17935e-09, global = -8.49239e-24, cumulative = 1.04831e-21
piso setup 20.072 [ms]
 correctNonOrthogonal 
 setRef 
 startSolve 
nonePCG:  Solving for p, Initial residual = 0.0117515, Final residual = 9.44076e-05, No Iterations 433
linear solve p 653.51 [ms]
piso step 664.825 [ms]
 contErrors 
time step continuity errors : sum local = 1.13744e-09, global = -1.54083e-22, cumulative = 8.94222e-22
ExecutionTime = 26.65 s  ClockTime = 27 s

Time = 0.000733333

Courant Number mean: 0.00593221 max: 0.0916776
DILUPBiCGStab:  Solving for Ux, Initial residual = 0.0159171, Final residual = 7.02921e-07, No Iterations 5
DILUPBiCGStab:  Solving for Uy, Initial residual = 0.0229363, Final residual = 5.10061e-07, No Iterations 5
DILUPBiCGStab:  Solving for Uz, Initial residual = 0.0420045, Final residual = 1.62748e-06, No Iterations 5
linear solve U 139.112 [ms]
piso setup 23.626 [ms]
 correctNonOrthogonal 
 setRef 
 startSolve 
nonePCG:  Solving for p, Initial residual = 0.0118168, Final residual = 9.46331e-05, No Iterations 433
linear solve p 672.543 [ms]
piso step 683.533 [ms]
 contErrors 
time step continuity errors : sum local = 1.15858e-09, global = 5.58964e-22, cumulative = 1.45319e-21
piso setup 23.444 [ms]
 correctNonOrthogonal 
 setRef 
 startSolve 
nonePCG:  Solving for p, Initial residual = 0.0102759, Final residual = 9.98402e-05, No Iterations 427
linear solve p 662.678 [ms]
piso step 673.619 [ms]
 contErrors 
time step continuity errors : sum local = 1.20582e-09, global = -1.11532e-22, cumulative = 1.34165e-21
ExecutionTime = 28.23 s  ClockTime = 29 s

Time = 0.0008

Courant Number mean: 0.00617735 max: 0.0920581
DILUPBiCGStab:  Solving for Ux, Initial residual = 0.0144668, Final residual = 5.98908e-07, No Iterations 5
DILUPBiCGStab:  Solving for Uy, Initial residual = 0.020722, Final residual = 4.48331e-07, No Iterations 5
DILUPBiCGStab:  Solving for Uz, Initial residual = 0.0383892, Final residual = 1.40673e-06, No Iterations 5
linear solve U 141.698 [ms]
piso setup 22.336 [ms]
 correctNonOrthogonal 
 setRef 
 startSolve 
nonePCG:  Solving for p, Initial residual = 0.0104039, Final residual = 9.52602e-05, No Iterations 428
linear solve p 651.537 [ms]
piso step 662.515 [ms]
 contErrors 
time step continuity errors : sum local = 1.16818e-09, global = 6.94866e-23, cumulative = 1.41114e-21
piso setup 21.078 [ms]
 correctNonOrthogonal 
 setRef 
 startSolve 
nonePCG:  Solving for p, Initial residual = 0.00907874, Final residual = 9.58088e-05, No Iterations 424
linear solve p 674.945 [ms]
piso step 686.666 [ms]
 contErrors 
time step continuity errors : sum local = 1.16447e-09, global = 1.23457e-23, cumulative = 1.42349e-21
ExecutionTime = 29.8 s  ClockTime = 30 s

Time = 0.000866667

Courant Number mean: 0.00640756 max: 0.0923861
DILUPBiCGStab:  Solving for Ux, Initial residual = 0.0132555, Final residual = 5.17793e-07, No Iterations 5
DILUPBiCGStab:  Solving for Uy, Initial residual = 0.018888, Final residual = 4.00297e-07, No Iterations 5
DILUPBiCGStab:  Solving for Uz, Initial residual = 0.0353368, Final residual = 1.21221e-06, No Iterations 5
linear solve U 139.506 [ms]
piso setup 22.583 [ms]
 correctNonOrthogonal 
 setRef 
 startSolve 
nonePCG:  Solving for p, Initial residual = 0.00929343, Final residual = 9.85338e-05, No Iterations 424
linear solve p 660.567 [ms]
piso step 669.541 [ms]
 contErrors 
time step continuity errors : sum local = 1.20955e-09, global = 3.38258e-22, cumulative = 1.76175e-21
piso setup 22.776 [ms]
 correctNonOrthogonal 
 setRef 
 startSolve 
nonePCG:  Solving for p, Initial residual = 0.00812553, Final residual = 9.74305e-05, No Iterations 420
linear solve p 657.806 [ms]
piso step 667.645 [ms]
 contErrors 
time step continuity errors : sum local = 1.1877e-09, global = 5.85299e-23, cumulative = 1.82028e-21
ExecutionTime = 31.36 s  ClockTime = 32 s

Time = 0.000933333

Courant Number mean: 0.00662382 max: 0.0926725
DILUPBiCGStab:  Solving for Ux, Initial residual = 0.0122271, Final residual = 4.53893e-07, No Iterations 5
DILUPBiCGStab:  Solving for Uy, Initial residual = 0.0173444, Final residual = 3.61984e-07, No Iterations 5
DILUPBiCGStab:  Solving for Uz, Initial residual = 0.0327202, Final residual = 1.04799e-06, No Iterations 5
linear solve U 140.613 [ms]
piso setup 21.653 [ms]
 correctNonOrthogonal 
 setRef 
 startSolve 
nonePCG:  Solving for p, Initial residual = 0.00839027, Final residual = 9.87549e-05, No Iterations 421
linear solve p 642.025 [ms]
piso step 651.99 [ms]
 contErrors 
time step continuity errors : sum local = 1.21477e-09, global = -3.64235e-23, cumulative = 1.78385e-21
piso setup 20.493 [ms]
 correctNonOrthogonal 
 setRef 
 startSolve 
nonePCG:  Solving for p, Initial residual = 0.00735104, Final residual = 9.7801e-05, No Iterations 417
linear solve p 630.417 [ms]
piso step 640.501 [ms]
 contErrors 
time step continuity errors : sum local = 1.19586e-09, global = -5.49606e-22, cumulative = 1.23425e-21
ExecutionTime = 32.87 s  ClockTime = 34 s

Time = 0.001

Courant Number mean: 0.00682868 max: 0.0929255
DILUPBiCGStab:  Solving for Ux, Initial residual = 0.0113437, Final residual = 4.02983e-07, No Iterations 5
DILUPBiCGStab:  Solving for Uy, Initial residual = 0.0160273, Final residual = 3.30745e-07, No Iterations 5
DILUPBiCGStab:  Solving for Uz, Initial residual = 0.0304531, Final residual = 9.10466e-07, No Iterations 5
linear solve U 137.208 [ms]
piso setup 22.553 [ms]
 correctNonOrthogonal 
 setRef 
 startSolve 
nonePCG:  Solving for p, Initial residual = 0.00760325, Final residual = 9.88065e-05, No Iterations 418
linear solve p 640.3 [ms]
piso step 650.749 [ms]
 contErrors 
time step continuity errors : sum local = 1.21832e-09, global = 1.00089e-23, cumulative = 1.24425e-21
piso setup 20.743 [ms]
 correctNonOrthogonal 
 setRef 
 startSolve 
nonePCG:  Solving for p, Initial residual = 0.00667883, Final residual = 9.73433e-05, No Iterations 412
linear solve p 619.818 [ms]
piso step 629.309 [ms]
 contErrors 
time step continuity errors : sum local = 1.19416e-09, global = 2.47279e-22, cumulative = 1.49153e-21
ExecutionTime = 34.38 s  ClockTime = 35 s

Time = 0.00106667

Courant Number mean: 0.00702348 max: 0.093151
DILUPBiCGStab:  Solving for Ux, Initial residual = 0.010576, Final residual = 3.62667e-07, No Iterations 5
DILUPBiCGStab:  Solving for Uy, Initial residual = 0.0148905, Final residual = 3.04808e-07, No Iterations 5
DILUPBiCGStab:  Solving for Uz, Initial residual = 0.0284688, Final residual = 7.97718e-07, No Iterations 5
linear solve U 142.434 [ms]
piso setup 22.443 [ms]
 correctNonOrthogonal 
 setRef 
 startSolve 
nonePCG:  Solving for p, Initial residual = 0.00695754, Final residual = 9.95373e-05, No Iterations 416
linear solve p 635.897 [ms]
piso step 645.422 [ms]
 contErrors 
time step continuity errors : sum local = 1.22915e-09, global = -2.75175e-23, cumulative = 1.46402e-21
piso setup 20.47 [ms]
 correctNonOrthogonal 
 setRef 
 startSolve 
nonePCG:  Solving for p, Initial residual = 0.0061136, Final residual = 9.55332e-05, No Iterations 410
linear solve p 630.71 [ms]
piso step 640.802 [ms]
 contErrors 
time step continuity errors : sum local = 1.17643e-09, global = 3.652e-22, cumulative = 1.82922e-21
ExecutionTime = 35.89 s  ClockTime = 37 s

Time = 0.00113333

Courant Number mean: 0.00720866 max: 0.0933538
DILUPBiCGStab:  Solving for Ux, Initial residual = 0.00990237, Final residual = 3.29709e-07, No Iterations 5
DILUPBiCGStab:  Solving for Uy, Initial residual = 0.0138992, Final residual = 2.82947e-07, No Iterations 5
DILUPBiCGStab:  Solving for Uz, Initial residual = 0.026718, Final residual = 7.05381e-07, No Iterations 5
linear solve U 143.449 [ms]
piso setup 21.441 [ms]
 correctNonOrthogonal 
 setRef 
 startSolve 
nonePCG:  Solving for p, Initial residual = 0.00635448, Final residual = 9.98985e-05, No Iterations 411
linear solve p 632.166 [ms]
piso step 642.107 [ms]
 contErrors 
time step continuity errors : sum local = 1.23568e-09, global = -2.38711e-22, cumulative = 1.59051e-21
piso setup 21.876 [ms]
 correctNonOrthogonal 
 setRef 
 startSolve 
nonePCG:  Solving for p, Initial residual = 0.00560522, Final residual = 9.83258e-05, No Iterations 405
linear solve p 626.089 [ms]
piso step 635.755 [ms]
 contErrors 
time step continuity errors : sum local = 1.21149e-09, global = 1.21458e-22, cumulative = 1.71196e-21
ExecutionTime = 37.39 s  ClockTime = 38 s

Time = 0.0012

Courant Number mean: 0.00738517 max: 0.0935373
DILUPBiCGStab:  Solving for Ux, Initial residual = 0.00930647, Final residual = 3.02032e-07, No Iterations 5
DILUPBiCGStab:  Solving for Uy, Initial residual = 0.0130275, Final residual = 2.64263e-07, No Iterations 5
DILUPBiCGStab:  Solving for Uz, Initial residual = 0.0251622, Final residual = 6.30642e-07, No Iterations 5
linear solve U 136.504 [ms]
piso setup 21.324 [ms]
 correctNonOrthogonal 
 setRef 
 startSolve 
nonePCG:  Solving for p, Initial residual = 0.00593349, Final residual = 9.60076e-05, No Iterations 411
linear solve p 642.504 [ms]
piso step 653.387 [ms]
 contErrors 
time step continuity errors : sum local = 1.19291e-09, global = -3.46637e-22, cumulative = 1.36533e-21
piso setup 20.958 [ms]
 correctNonOrthogonal 
 setRef 
 startSolve 
nonePCG:  Solving for p, Initial residual = 0.00522046, Final residual = 9.69589e-05, No Iterations 403
linear solve p 629.583 [ms]
piso step 639.062 [ms]
 contErrors 
time step continuity errors : sum local = 1.19836e-09, global = 2.60672e-22, cumulative = 1.626e-21
ExecutionTime = 38.9 s  ClockTime = 40 s

Time = 0.00126667

Courant Number mean: 0.00755472 max: 0.0937044
DILUPBiCGStab:  Solving for Ux, Initial residual = 0.00877654, Final residual = 2.78496e-07, No Iterations 5
DILUPBiCGStab:  Solving for Uy, Initial residual = 0.0122548, Final residual = 2.48144e-07, No Iterations 5
DILUPBiCGStab:  Solving for Uz, Initial residual = 0.0237705, Final residual = 5.68871e-07, No Iterations 5
linear solve U 141.07 [ms]
piso setup 21.762 [ms]
 correctNonOrthogonal 
 setRef 
 startSolve 
nonePCG:  Solving for p, Initial residual = 0.00544411, Final residual = 9.84798e-05, No Iterations 405
linear solve p 624.295 [ms]
piso step 634.044 [ms]
 contErrors 
time step continuity errors : sum local = 1.22333e-09, global = -1.38608e-22, cumulative = 1.48739e-21
piso setup 23.944 [ms]
 correctNonOrthogonal 
 setRef 
 startSolve 
nonePCG:  Solving for p, Initial residual = 0.00481042, Final residual = 9.19825e-05, No Iterations 401
linear solve p 614.782 [ms]
piso step 624.752 [ms]
 contErrors 
time step continuity errors : sum local = 1.14306e-09, global = -5.73436e-22, cumulative = 9.13954e-22
ExecutionTime = 40.38 s  ClockTime = 41 s

Time = 0.00133333

Courant Number mean: 0.00771733 max: 0.0938574
DILUPBiCGStab:  Solving for Ux, Initial residual = 0.00829975, Final residual = 2.58194e-07, No Iterations 5
DILUPBiCGStab:  Solving for Uy, Initial residual = 0.0115654, Final residual = 2.34061e-07, No Iterations 5
DILUPBiCGStab:  Solving for Uz, Initial residual = 0.0225187, Final residual = 5.18457e-07, No Iterations 5
linear solve U 136.423 [ms]
piso setup 22.057 [ms]
 correctNonOrthogonal 
 setRef 
 startSolve 
nonePCG:  Solving for p, Initial residual = 0.00514552, Final residual = 9.69349e-05, No Iterations 404
linear solve p 613.221 [ms]
piso step 622.853 [ms]
 contErrors 
time step continuity errors : sum local = 1.20741e-09, global = 1.83262e-22, cumulative = 1.09722e-21
piso setup 20.943 [ms]
 correctNonOrthogonal 
 setRef 
 startSolve 
nonePCG:  Solving for p, Initial residual = 0.00455348, Final residual = 9.94414e-05, No Iterations 394
linear solve p 596.714 [ms]
piso step 606.313 [ms]
 contErrors 
time step continuity errors : sum local = 1.23163e-09, global = -5.3855e-22, cumulative = 5.58666e-22
ExecutionTime = 41.83 s  ClockTime = 43 s

End

Finalising parallel run
================================================================================
hash: 7f9d5bb852d94bdd8ce906a1550402fe
/*---------------------------------------------------------------------------*\
| =========                 |                                                 |
| \\      /  F ield         | OpenFOAM: The Open Source CFD Toolbox           |
|  \\    /   O peration     | Version:  v2106                                 |
|   \\  /    A nd           | Website:  www.openfoam.com                      |
|    \\/     M anipulation  |                                                 |
\*---------------------------------------------------------------------------*/
Build  : f815a12bba-20210902 OPENFOAM=2106
Arch   : "LSB;label=32;scalar=64"
Exec   : icoFoam -parallel
Date   : Oct 07 2022
Time   : 14:56:40
Host   : nla-gpu2.ianm.kit.edu
PID    : 1655937
I/O    : uncollated
Case   : /home/greole/data/code/ogl_labbook/lidDrivenCavity/single_node/mesh/200/matrix_solver/CG_NoPrecond_OpenFOAM_Default/mpiRank_of/32/base
nProcs : 32
Hosts  :
(
    (nla-gpu2.ianm.kit.edu 32)
)
Pstream initialized with:
    floatTransfer      : 0
    nProcsSimpleSum    : 0
    commsType          : nonBlocking
    polling iterations : 0
trapFpe: Floating point exception trapping enabled (FOAM_SIGFPE).
fileModificationChecking : Monitoring run-time modified files using timeStampMaster (fileModificationSkew 5, maxFileModificationPolls 20)
allowSystemOperations : Allowing user-supplied system call operations

// * * * * * * * * * * * * * * * * * * * * * * * * * * * * * * * * * * * * * //
Create time

Create mesh for time = 0


PISO: Operating solver in PISO mode

Reading transportProperties

Reading field p

Reading field U

Reading/calculating face flux field phi


Starting time loop

Time = 5e-05

Courant Number mean: 0 max: 0
DILUPBiCGStab:  Solving for Ux, Initial residual = 1, Final residual = 0.000121814, No Iterations 5
DILUPBiCGStab:  Solving for Uy:  solution singularity
DILUPBiCGStab:  Solving for Uz:  solution singularity
linear solve U 268.369 [ms]
piso setup 111.388 [ms]
 correctNonOrthogonal 
 setRef 
 startSolve 
nonePCG:  Solving for p, Initial residual = 1, Final residual = 9.9487e-05, No Iterations 1614
linear solve p 7906.3 [ms]
piso step 7955.19 [ms]
 contErrors 
time step continuity errors : sum local = 6.58739e-10, global = -5.55028e-23, cumulative = -5.55028e-23
piso setup 104.954 [ms]
 correctNonOrthogonal 
 setRef 
 startSolve 
nonePCG:  Solving for p, Initial residual = 0.645093, Final residual = 9.63403e-05, No Iterations 1587
linear solve p 7638.5 [ms]
piso step 7675.1 [ms]
 contErrors 
time step continuity errors : sum local = 9.21152e-10, global = 2.38689e-22, cumulative = 1.83186e-22
ExecutionTime = 17.82 s  ClockTime = 18 s

Time = 0.0001

Courant Number mean: 0.00156134 max: 0.0657803
DILUPBiCGStab:  Solving for Ux, Initial residual = 0.189842, Final residual = 7.89089e-05, No Iterations 5
DILUPBiCGStab:  Solving for Uy, Initial residual = 0.330054, Final residual = 7.67047e-05, No Iterations 5
DILUPBiCGStab:  Solving for Uz, Initial residual = 0.992764, Final residual = 0.000282505, No Iterations 5
linear solve U 413.091 [ms]
piso setup 81.269 [ms]
 correctNonOrthogonal 
 setRef 
 startSolve 
nonePCG:  Solving for p, Initial residual = 0.510327, Final residual = 9.66282e-05, No Iterations 1561
linear solve p 7433.36 [ms]
piso step 7472.76 [ms]
 contErrors 
time step continuity errors : sum local = 9.0073e-10, global = -3.32309e-22, cumulative = -1.49123e-22
piso setup 67.522 [ms]
 correctNonOrthogonal 
 setRef 
 startSolve 
nonePCG:  Solving for p, Initial residual = 0.421059, Final residual = 9.58026e-05, No Iterations 1556
linear solve p 7440.09 [ms]
piso step 7469.57 [ms]
 contErrors 
time step continuity errors : sum local = 9.20675e-10, global = -1.11417e-23, cumulative = -1.60265e-22
ExecutionTime = 33.34 s  ClockTime = 33 s

Time = 0.00015

Courant Number mean: 0.00241156 max: 0.0810516
DILUPBiCGStab:  Solving for Ux, Initial residual = 0.080351, Final residual = 2.73605e-05, No Iterations 5
DILUPBiCGStab:  Solving for Uy, Initial residual = 0.137294, Final residual = 1.74134e-05, No Iterations 5
DILUPBiCGStab:  Solving for Uz, Initial residual = 0.0914852, Final residual = 3.87403e-05, No Iterations 5
linear solve U 407.933 [ms]
piso setup 72.616 [ms]
 correctNonOrthogonal 
 setRef 
 startSolve 
nonePCG:  Solving for p, Initial residual = 0.252941, Final residual = 9.80335e-05, No Iterations 1526
linear solve p 7293.84 [ms]
piso step 7330.2 [ms]
 contErrors 
time step continuity errors : sum local = 7.05513e-10, global = -9.86692e-23, cumulative = -2.58934e-22
piso setup 68.011 [ms]
 correctNonOrthogonal 
 setRef 
 startSolve 
nonePCG:  Solving for p, Initial residual = 0.209329, Final residual = 9.82792e-05, No Iterations 1517
linear solve p 7305.12 [ms]
piso step 7336.42 [ms]
 contErrors 
time step continuity errors : sum local = 6.99496e-10, global = -2.47244e-22, cumulative = -5.06178e-22
ExecutionTime = 48.58 s  ClockTime = 49 s

Time = 0.0002

Courant Number mean: 0.00299652 max: 0.0859677
DILUPBiCGStab:  Solving for Ux, Initial residual = 0.0511434, Final residual = 1.34186e-05, No Iterations 5
DILUPBiCGStab:  Solving for Uy, Initial residual = 0.0858845, Final residual = 1.22913e-05, No Iterations 5
DILUPBiCGStab:  Solving for Uz, Initial residual = 0.111652, Final residual = 2.6197e-05, No Iterations 5
linear solve U 404.555 [ms]
piso setup 73.894 [ms]
 correctNonOrthogonal 
 setRef 
 startSolve 
nonePCG:  Solving for p, Initial residual = 0.123137, Final residual = 9.92925e-05, No Iterations 1485
linear solve p 7083.54 [ms]
piso step 7116.24 [ms]
 contErrors 
time step continuity errors : sum local = 6.71669e-10, global = 2.69142e-23, cumulative = -4.79263e-22
piso setup 66.689 [ms]
 correctNonOrthogonal 
 setRef 
 startSolve 
nonePCG:  Solving for p, Initial residual = 0.0998338, Final residual = 9.83168e-05, No Iterations 1480
linear solve p 7098.49 [ms]
piso step 7130.02 [ms]
 contErrors 
time step continuity errors : sum local = 6.72493e-10, global = -1.53159e-22, cumulative = -6.32422e-22
ExecutionTime = 63.39 s  ClockTime = 64 s

Time = 0.00025

Courant Number mean: 0.00346137 max: 0.088316
DILUPBiCGStab:  Solving for Ux, Initial residual = 0.0380473, Final residual = 7.03342e-06, No Iterations 5
DILUPBiCGStab:  Solving for Uy, Initial residual = 0.0619927, Final residual = 8.69556e-06, No Iterations 5
DILUPBiCGStab:  Solving for Uz, Initial residual = 0.0916066, Final residual = 1.41421e-05, No Iterations 5
linear solve U 404.697 [ms]
piso setup 69.949 [ms]
 correctNonOrthogonal 
 setRef 
 startSolve 
nonePCG:  Solving for p, Initial residual = 0.0624844, Final residual = 9.71704e-05, No Iterations 715
linear solve p 3389.52 [ms]
piso step 3417.5 [ms]
 contErrors 
time step continuity errors : sum local = 6.97069e-10, global = -2.86075e-23, cumulative = -6.6103e-22
piso setup 69.767 [ms]
 correctNonOrthogonal 
 setRef 
 startSolve 
nonePCG:  Solving for p, Initial residual = 0.0526116, Final residual = 9.91603e-05, No Iterations 682
linear solve p 3247.61 [ms]
piso step 3276.18 [ms]
 contErrors 
time step continuity errors : sum local = 6.74036e-10, global = -1.1838e-22, cumulative = -7.7941e-22
ExecutionTime = 70.71 s  ClockTime = 71 s

Time = 0.0003

Courant Number mean: 0.00385425 max: 0.0897419
DILUPBiCGStab:  Solving for Ux, Initial residual = 0.030493, Final residual = 5.10609e-06, No Iterations 5
DILUPBiCGStab:  Solving for Uy, Initial residual = 0.048605, Final residual = 5.49581e-06, No Iterations 5
DILUPBiCGStab:  Solving for Uz, Initial residual = 0.0778258, Final residual = 9.69464e-06, No Iterations 5
linear solve U 401.573 [ms]
piso setup 68.988 [ms]
 correctNonOrthogonal 
 setRef 
 startSolve 
nonePCG:  Solving for p, Initial residual = 0.0397255, Final residual = 9.97429e-05, No Iterations 652
linear solve p 3124.82 [ms]
piso step 3151.84 [ms]
 contErrors 
time step continuity errors : sum local = 6.72583e-10, global = -3.20557e-22, cumulative = -1.09997e-21
piso setup 65.774 [ms]
 correctNonOrthogonal 
 setRef 
 startSolve 
nonePCG:  Solving for p, Initial residual = 0.0336514, Final residual = 9.95694e-05, No Iterations 642
linear solve p 3059.2 [ms]
piso step 3087.07 [ms]
 contErrors 
time step continuity errors : sum local = 6.66617e-10, global = -2.15387e-22, cumulative = -1.31535e-21
ExecutionTime = 77.59 s  ClockTime = 78 s

Time = 0.00035

Courant Number mean: 0.00419842 max: 0.0907273
DILUPBiCGStab:  Solving for Ux, Initial residual = 0.0255221, Final residual = 4.25794e-06, No Iterations 5
DILUPBiCGStab:  Solving for Uy, Initial residual = 0.039931, Final residual = 4.05356e-06, No Iterations 5
DILUPBiCGStab:  Solving for Uz, Initial residual = 0.0666163, Final residual = 6.73371e-06, No Iterations 5
linear solve U 403.869 [ms]
piso setup 69.344 [ms]
 correctNonOrthogonal 
 setRef 
 startSolve 
nonePCG:  Solving for p, Initial residual = 0.0291684, Final residual = 9.97451e-05, No Iterations 633
linear solve p 3015.73 [ms]
piso step 3045.2 [ms]
 contErrors 
time step continuity errors : sum local = 6.93973e-10, global = 8.75519e-23, cumulative = -1.2278e-21
piso setup 67.963 [ms]
 correctNonOrthogonal 
 setRef 
 startSolve 
nonePCG:  Solving for p, Initial residual = 0.0253426, Final residual = 9.9471e-05, No Iterations 622
linear solve p 2968.25 [ms]
piso step 2997.99 [ms]
 contErrors 
time step continuity errors : sum local = 6.74206e-10, global = 1.58116e-22, cumulative = -1.06969e-21
ExecutionTime = 84.24 s  ClockTime = 85 s

Time = 0.0004

Courant Number mean: 0.0045062 max: 0.0914618
DILUPBiCGStab:  Solving for Ux, Initial residual = 0.0219732, Final residual = 3.55195e-06, No Iterations 5
DILUPBiCGStab:  Solving for Uy, Initial residual = 0.0338792, Final residual = 2.95352e-06, No Iterations 5
DILUPBiCGStab:  Solving for Uz, Initial residual = 0.0581843, Final residual = 5.15182e-06, No Iterations 5
linear solve U 404.504 [ms]
piso setup 68.797 [ms]
 correctNonOrthogonal 
 setRef 
 startSolve 
nonePCG:  Solving for p, Initial residual = 0.0217488, Final residual = 9.91751e-05, No Iterations 612
linear solve p 2933.59 [ms]
piso step 2962.01 [ms]
 contErrors 
time step continuity errors : sum local = 6.7662e-10, global = -1.35482e-22, cumulative = -1.20517e-21
piso setup 67.706 [ms]
 correctNonOrthogonal 
 setRef 
 startSolve 
nonePCG:  Solving for p, Initial residual = 0.0192363, Final residual = 9.97778e-05, No Iterations 606
linear solve p 2892.19 [ms]
piso step 2919.84 [ms]
 contErrors 
time step continuity errors : sum local = 6.75575e-10, global = -4.10411e-22, cumulative = -1.61558e-21
ExecutionTime = 90.75 s  ClockTime = 91 s

Time = 0.00045

Courant Number mean: 0.00478564 max: 0.0920366
DILUPBiCGStab:  Solving for Ux, Initial residual = 0.0193071, Final residual = 2.96521e-06, No Iterations 5
DILUPBiCGStab:  Solving for Uy, Initial residual = 0.0293953, Final residual = 2.35145e-06, No Iterations 5
DILUPBiCGStab:  Solving for Uz, Initial residual = 0.0517684, Final residual = 4.16203e-06, No Iterations 5
linear solve U 406.772 [ms]
piso setup 70.769 [ms]
 correctNonOrthogonal 
 setRef 
 startSolve 
nonePCG:  Solving for p, Initial residual = 0.0181881, Final residual = 9.91566e-05, No Iterations 602
linear solve p 2878.53 [ms]
piso step 2906.11 [ms]
 contErrors 
time step continuity errors : sum local = 6.87111e-10, global = 1.30601e-22, cumulative = -1.48498e-21
piso setup 65.902 [ms]
 correctNonOrthogonal 
 setRef 
 startSolve 
nonePCG:  Solving for p, Initial residual = 0.0162117, Final residual = 9.89982e-05, No Iterations 595
linear solve p 2842.88 [ms]
piso step 2871.09 [ms]
 contErrors 
time step continuity errors : sum local = 6.75752e-10, global = 4.16599e-22, cumulative = -1.06838e-21
ExecutionTime = 97.14 s  ClockTime = 98 s

Time = 0.0005

Courant Number mean: 0.00504288 max: 0.0925024
DILUPBiCGStab:  Solving for Ux, Initial residual = 0.0172229, Final residual = 2.50006e-06, No Iterations 5
DILUPBiCGStab:  Solving for Uy, Initial residual = 0.0259497, Final residual = 1.91582e-06, No Iterations 5
DILUPBiCGStab:  Solving for Uz, Initial residual = 0.0464959, Final residual = 3.5099e-06, No Iterations 5
linear solve U 406.461 [ms]
piso setup 70.249 [ms]
 correctNonOrthogonal 
 setRef 
 startSolve 
nonePCG:  Solving for p, Initial residual = 0.0152866, Final residual = 9.88264e-05, No Iterations 593
linear solve p 2840.07 [ms]
piso step 2867.95 [ms]
 contErrors 
time step continuity errors : sum local = 6.79971e-10, global = -1.0637e-22, cumulative = -1.17475e-21
piso setup 66.22 [ms]
 correctNonOrthogonal 
 setRef 
 startSolve 
nonePCG:  Solving for p, Initial residual = 0.0137129, Final residual = 9.69028e-05, No Iterations 588
linear solve p 2808.73 [ms]
piso step 2836.86 [ms]
 contErrors 
time step continuity errors : sum local = 6.62755e-10, global = -3.17798e-22, cumulative = -1.49255e-21
ExecutionTime = 103.46 s  ClockTime = 104 s

Time = 0.00055

Courant Number mean: 0.0052811 max: 0.0928898
DILUPBiCGStab:  Solving for Ux, Initial residual = 0.0155462, Final residual = 2.13411e-06, No Iterations 5
DILUPBiCGStab:  Solving for Uy, Initial residual = 0.0232132, Final residual = 1.63409e-06, No Iterations 5
DILUPBiCGStab:  Solving for Uz, Initial residual = 0.0422299, Final residual = 3.11004e-06, No Iterations 5
linear solve U 408.429 [ms]
piso setup 70.026 [ms]
 correctNonOrthogonal 
 setRef 
 startSolve 
nonePCG:  Solving for p, Initial residual = 0.0133057, Final residual = 9.81758e-05, No Iterations 586
linear solve p 2776.34 [ms]
piso step 2803.86 [ms]
 contErrors 
time step continuity errors : sum local = 6.81286e-10, global = -9.75621e-23, cumulative = -1.59011e-21
piso setup 65.808 [ms]
 correctNonOrthogonal 
 setRef 
 startSolve 
nonePCG:  Solving for p, Initial residual = 0.0119697, Final residual = 9.91818e-05, No Iterations 580
linear solve p 2783.83 [ms]
piso step 2811.45 [ms]
 contErrors 
time step continuity errors : sum local = 6.81224e-10, global = 2.59675e-22, cumulative = -1.33043e-21
ExecutionTime = 109.7 s  ClockTime = 111 s

Time = 0.0006

Courant Number mean: 0.00550384 max: 0.0932185
DILUPBiCGStab:  Solving for Ux, Initial residual = 0.0141659, Final residual = 1.84435e-06, No Iterations 5
DILUPBiCGStab:  Solving for Uy, Initial residual = 0.0209907, Final residual = 1.4219e-06, No Iterations 5
DILUPBiCGStab:  Solving for Uz, Initial residual = 0.0386239, Final residual = 2.80213e-06, No Iterations 5
linear solve U 404.055 [ms]
piso setup 67.98 [ms]
 correctNonOrthogonal 
 setRef 
 startSolve 
nonePCG:  Solving for p, Initial residual = 0.011745, Final residual = 9.828e-05, No Iterations 581
linear solve p 2788.41 [ms]
piso step 2815.06 [ms]
 contErrors 
time step continuity errors : sum local = 6.8025e-10, global = -1.66138e-22, cumulative = -1.49657e-21
piso setup 66.152 [ms]
 correctNonOrthogonal 
 setRef 
 startSolve 
nonePCG:  Solving for p, Initial residual = 0.010601, Final residual = 9.82005e-05, No Iterations 576
linear solve p 2734.91 [ms]
piso step 2762.39 [ms]
 contErrors 
time step continuity errors : sum local = 6.75912e-10, global = -3.72642e-22, cumulative = -1.86921e-21
ExecutionTime = 115.91 s  ClockTime = 117 s

Time = 0.00065

Courant Number mean: 0.00571303 max: 0.093502
DILUPBiCGStab:  Solving for Ux, Initial residual = 0.0130114, Final residual = 1.61166e-06, No Iterations 5
DILUPBiCGStab:  Solving for Uy, Initial residual = 0.0191479, Final residual = 1.2597e-06, No Iterations 5
DILUPBiCGStab:  Solving for Uz, Initial residual = 0.0355947, Final residual = 2.59388e-06, No Iterations 5
linear solve U 410.29 [ms]
piso setup 68.941 [ms]
 correctNonOrthogonal 
 setRef 
 startSolve 
nonePCG:  Solving for p, Initial residual = 0.0104542, Final residual = 9.61856e-05, No Iterations 577
linear solve p 2741.96 [ms]
piso step 2770.28 [ms]
 contErrors 
time step continuity errors : sum local = 6.69716e-10, global = 2.37401e-22, cumulative = -1.63181e-21
piso setup 69.104 [ms]
 correctNonOrthogonal 
 setRef 
 startSolve 
nonePCG:  Solving for p, Initial residual = 0.00945974, Final residual = 9.7301e-05, No Iterations 571
linear solve p 2719.62 [ms]
piso step 2748.8 [ms]
 contErrors 
time step continuity errors : sum local = 6.723e-10, global = 3.46966e-22, cumulative = -1.28485e-21
ExecutionTime = 122.06 s  ClockTime = 123 s

Time = 0.0007

Courant Number mean: 0.00591026 max: 0.0937498
DILUPBiCGStab:  Solving for Ux, Initial residual = 0.0120286, Final residual = 1.42284e-06, No Iterations 5
DILUPBiCGStab:  Solving for Uy, Initial residual = 0.0175965, Final residual = 1.13045e-06, No Iterations 5
DILUPBiCGStab:  Solving for Uz, Initial residual = 0.0329764, Final residual = 2.41064e-06, No Iterations 5
linear solve U 403.019 [ms]
piso setup 68.269 [ms]
 correctNonOrthogonal 
 setRef 
 startSolve 
nonePCG:  Solving for p, Initial residual = 0.00942588, Final residual = 9.86158e-05, No Iterations 572
linear solve p 2718.05 [ms]
piso step 2745.7 [ms]
 contErrors 
time step continuity errors : sum local = 6.85355e-10, global = 4.54986e-22, cumulative = -8.29861e-22
piso setup 67.244 [ms]
 correctNonOrthogonal 
 setRef 
 startSolve 
nonePCG:  Solving for p, Initial residual = 0.00854307, Final residual = 9.84532e-05, No Iterations 566
linear solve p 2706.42 [ms]
piso step 2734.14 [ms]
 contErrors 
time step continuity errors : sum local = 6.81095e-10, global = -1.68176e-22, cumulative = -9.98038e-22
ExecutionTime = 128.17 s  ClockTime = 129 s

Time = 0.00075

Courant Number mean: 0.00609754 max: 0.0939687
DILUPBiCGStab:  Solving for Ux, Initial residual = 0.011182, Final residual = 1.26756e-06, No Iterations 5
DILUPBiCGStab:  Solving for Uy, Initial residual = 0.0162717, Final residual = 1.02605e-06, No Iterations 5
DILUPBiCGStab:  Solving for Uz, Initial residual = 0.0307207, Final residual = 2.27519e-06, No Iterations 5
linear solve U 410.175 [ms]
piso setup 68.727 [ms]
 correctNonOrthogonal 
 setRef 
 startSolve 
nonePCG:  Solving for p, Initial residual = 0.0085843, Final residual = 9.93789e-05, No Iterations 568
linear solve p 2692.76 [ms]
piso step 2720.05 [ms]
 contErrors 
time step continuity errors : sum local = 6.92808e-10, global = -9.56479e-23, cumulative = -1.09369e-21
piso setup 66.81 [ms]
 correctNonOrthogonal 
 setRef 
 startSolve 
nonePCG:  Solving for p, Initial residual = 0.00779462, Final residual = 9.92793e-05, No Iterations 562
linear solve p 2709.01 [ms]
piso step 2735.74 [ms]
 contErrors 
time step continuity errors : sum local = 6.88411e-10, global = -2.43902e-22, cumulative = -1.33759e-21
ExecutionTime = 134.26 s  ClockTime = 135 s

Time = 0.0008

Courant Number mean: 0.0062753 max: 0.094164
DILUPBiCGStab:  Solving for Ux, Initial residual = 0.0104455, Final residual = 1.13856e-06, No Iterations 5
DILUPBiCGStab:  Solving for Uy, Initial residual = 0.015128, Final residual = 9.4005e-07, No Iterations 5
DILUPBiCGStab:  Solving for Uz, Initial residual = 0.0287357, Final residual = 2.14307e-06, No Iterations 5
linear solve U 404.677 [ms]
piso setup 67.652 [ms]
 correctNonOrthogonal 
 setRef 
 startSolve 
nonePCG:  Solving for p, Initial residual = 0.00783633, Final residual = 9.77682e-05, No Iterations 565
linear solve p 2681.26 [ms]
piso step 2708.36 [ms]
 contErrors 
time step continuity errors : sum local = 6.82014e-10, global = 4.17207e-22, cumulative = -9.20381e-22
piso setup 67.058 [ms]
 correctNonOrthogonal 
 setRef 
 startSolve 
nonePCG:  Solving for p, Initial residual = 0.0071214, Final residual = 9.67768e-05, No Iterations 559
linear solve p 2684.66 [ms]
piso step 2712.46 [ms]
 contErrors 
time step continuity errors : sum local = 6.72722e-10, global = 3.21825e-23, cumulative = -8.88198e-22
ExecutionTime = 140.31 s  ClockTime = 141 s

Time = 0.00085

Courant Number mean: 0.00644506 max: 0.0943396
DILUPBiCGStab:  Solving for Ux, Initial residual = 0.00979762, Final residual = 1.02999e-06, No Iterations 5
DILUPBiCGStab:  Solving for Uy, Initial residual = 0.0141301, Final residual = 8.67902e-07, No Iterations 5
DILUPBiCGStab:  Solving for Uz, Initial residual = 0.0269924, Final residual = 2.03492e-06, No Iterations 5
linear solve U 404.727 [ms]
piso setup 68.589 [ms]
 correctNonOrthogonal 
 setRef 
 startSolve 
nonePCG:  Solving for p, Initial residual = 0.00719818, Final residual = 9.89981e-05, No Iterations 560
linear solve p 2669.41 [ms]
piso step 2696.94 [ms]
 contErrors 
time step continuity errors : sum local = 6.92035e-10, global = 3.27644e-22, cumulative = -5.60555e-22
piso setup 65.514 [ms]
 correctNonOrthogonal 
 setRef 
 startSolve 
nonePCG:  Solving for p, Initial residual = 0.00655608, Final residual = 9.99769e-05, No Iterations 553
linear solve p 2648.97 [ms]
piso step 2676.53 [ms]
 contErrors 
time step continuity errors : sum local = 6.95526e-10, global = -2.8994e-22, cumulative = -8.50494e-22
ExecutionTime = 146.3 s  ClockTime = 147 s

Time = 0.0009

Courant Number mean: 0.00660761 max: 0.0944985
DILUPBiCGStab:  Solving for Ux, Initial residual = 0.00922461, Final residual = 9.37798e-07, No Iterations 5
DILUPBiCGStab:  Solving for Uy, Initial residual = 0.0132524, Final residual = 8.06436e-07, No Iterations 5
DILUPBiCGStab:  Solving for Uz, Initial residual = 0.0254369, Final residual = 1.92354e-06, No Iterations 5
linear solve U 402.582 [ms]
piso setup 67.941 [ms]
 correctNonOrthogonal 
 setRef 
 startSolve 
nonePCG:  Solving for p, Initial residual = 0.00670505, Final residual = 9.60369e-05, No Iterations 558
linear solve p 2650.55 [ms]
piso step 2677.95 [ms]
 contErrors 
time step continuity errors : sum local = 6.72382e-10, global = -3.62977e-23, cumulative = -8.86792e-22
piso setup 65.917 [ms]
 correctNonOrthogonal 
 setRef 
 startSolve 
nonePCG:  Solving for p, Initial residual = 0.0060994, Final residual = 9.89008e-05, No Iterations 550
linear solve p 2610.67 [ms]
piso step 2638.07 [ms]
 contErrors 
time step continuity errors : sum local = 6.89251e-10, global = -1.39072e-22, cumulative = -1.02586e-21
ExecutionTime = 152.25 s  ClockTime = 153 s

Time = 0.00095

Courant Number mean: 0.00676316 max: 0.0946434
DILUPBiCGStab:  Solving for Ux, Initial residual = 0.00871226, Final residual = 8.58853e-07, No Iterations 5
DILUPBiCGStab:  Solving for Uy, Initial residual = 0.012474, Final residual = 7.53403e-07, No Iterations 5
DILUPBiCGStab:  Solving for Uz, Initial residual = 0.0240507, Final residual = 1.82558e-06, No Iterations 5
linear solve U 421.043 [ms]
piso setup 69.133 [ms]
 correctNonOrthogonal 
 setRef 
 startSolve 
nonePCG:  Solving for p, Initial residual = 0.00618371, Final residual = 9.89425e-05, No Iterations 553
linear solve p 2612.72 [ms]
piso step 2640.11 [ms]
 contErrors 
time step continuity errors : sum local = 6.9331e-10, global = 1.16165e-22, cumulative = -9.097e-22
piso setup 65.636 [ms]
 correctNonOrthogonal 
 setRef 
 startSolve 
nonePCG:  Solving for p, Initial residual = 0.00563372, Final residual = 9.74831e-05, No Iterations 547
linear solve p 2620.23 [ms]
piso step 2647.49 [ms]
 contErrors 
time step continuity errors : sum local = 6.80957e-10, global = -1.38346e-23, cumulative = -9.23534e-22
ExecutionTime = 158.18 s  ClockTime = 159 s

Time = 0.001

Courant Number mean: 0.00691274 max: 0.0947761
DILUPBiCGStab:  Solving for Ux, Initial residual = 0.00825341, Final residual = 7.90724e-07, No Iterations 5
DILUPBiCGStab:  Solving for Uy, Initial residual = 0.0117794, Final residual = 7.07238e-07, No Iterations 5
DILUPBiCGStab:  Solving for Uz, Initial residual = 0.0227986, Final residual = 1.72563e-06, No Iterations 5
linear solve U 405.483 [ms]
piso setup 67.771 [ms]
 correctNonOrthogonal 
 setRef 
 startSolve 
nonePCG:  Solving for p, Initial residual = 0.00580997, Final residual = 9.84602e-05, No Iterations 552
linear solve p 2629.74 [ms]
piso step 2656.59 [ms]
 contErrors 
time step continuity errors : sum local = 6.90148e-10, global = 2.60045e-24, cumulative = -9.20934e-22
piso setup 66.127 [ms]
 correctNonOrthogonal 
 setRef 
 startSolve 
nonePCG:  Solving for p, Initial residual = 0.00529785, Final residual = 9.99935e-05, No Iterations 544
linear solve p 2610.22 [ms]
piso step 2638 [ms]
 contErrors 
time step continuity errors : sum local = 6.98493e-10, global = 1.35797e-22, cumulative = -7.85137e-22
ExecutionTime = 164.1 s  ClockTime = 165 s

End

Finalising parallel run
================================================================================
hash: 607c914b59310c2e0d5c81fe27ea4117
/*---------------------------------------------------------------------------*\
| =========                 |                                                 |
| \\      /  F ield         | OpenFOAM: The Open Source CFD Toolbox           |
|  \\    /   O peration     | Version:  v2106                                 |
|   \\  /    A nd           | Website:  www.openfoam.com                      |
|    \\/     M anipulation  |                                                 |
\*---------------------------------------------------------------------------*/
Build  : f815a12bba-20210902 OPENFOAM=2106
Arch   : "LSB;label=32;scalar=64"
Exec   : icoFoam -parallel
Date   : Oct 07 2022
Time   : 14:59:29
Host   : nla-gpu2.ianm.kit.edu
PID    : 1656169
I/O    : uncollated
Case   : /home/greole/data/code/ogl_labbook/lidDrivenCavity/single_node/mesh/250/matrix_solver/CG_NoPrecond_OpenFOAM_Default/mpiRank_of/32/base
nProcs : 32
Hosts  :
(
    (nla-gpu2.ianm.kit.edu 32)
)
Pstream initialized with:
    floatTransfer      : 0
    nProcsSimpleSum    : 0
    commsType          : nonBlocking
    polling iterations : 0
trapFpe: Floating point exception trapping enabled (FOAM_SIGFPE).
fileModificationChecking : Monitoring run-time modified files using timeStampMaster (fileModificationSkew 5, maxFileModificationPolls 20)
allowSystemOperations : Allowing user-supplied system call operations

// * * * * * * * * * * * * * * * * * * * * * * * * * * * * * * * * * * * * * //
Create time

Create mesh for time = 0


PISO: Operating solver in PISO mode

Reading transportProperties

Reading field p

Reading field U

Reading/calculating face flux field phi


Starting time loop

Time = 4e-05

Courant Number mean: 0 max: 0
DILUPBiCGStab:  Solving for Ux, Initial residual = 1, Final residual = 0.000308425, No Iterations 5
DILUPBiCGStab:  Solving for Uy:  solution singularity
DILUPBiCGStab:  Solving for Uz:  solution singularity
linear solve U 475.095 [ms]
piso setup 195.929 [ms]
 correctNonOrthogonal 
 setRef 
 startSolve 
nonePCG:  Solving for p, Initial residual = 1, Final residual = 9.97596e-05, No Iterations 2024
linear solve p 25437.4 [ms]
piso step 25516.3 [ms]
 contErrors 
time step continuity errors : sum local = 4.79497e-10, global = -2.65702e-22, cumulative = -2.65702e-22
piso setup 178 [ms]
 correctNonOrthogonal 
 setRef 
 startSolve 
nonePCG:  Solving for p, Initial residual = 0.670098, Final residual = 9.93235e-05, No Iterations 1990
linear solve p 24963.8 [ms]
piso step 25029.3 [ms]
 contErrors 
time step continuity errors : sum local = 6.73446e-10, global = -3.04211e-23, cumulative = -2.96123e-22
ExecutionTime = 54.19 s  ClockTime = 55 s

Time = 8e-05

Courant Number mean: 0.00142678 max: 0.0690571
DILUPBiCGStab:  Solving for Ux, Initial residual = 0.180318, Final residual = 0.000194586, No Iterations 5
DILUPBiCGStab:  Solving for Uy, Initial residual = 0.336114, Final residual = 0.000175745, No Iterations 5
DILUPBiCGStab:  Solving for Uz, Initial residual = 0.993925, Final residual = 0.000713631, No Iterations 5
linear solve U 861.291 [ms]
piso setup 160.068 [ms]
 correctNonOrthogonal 
 setRef 
 startSolve 
nonePCG:  Solving for p, Initial residual = 0.557768, Final residual = 9.82005e-05, No Iterations 1960
linear solve p 24419.8 [ms]
piso step 24488.2 [ms]
 contErrors 
time step continuity errors : sum local = 6.63029e-10, global = -3.91065e-23, cumulative = -3.3523e-22
piso setup 148.963 [ms]
 correctNonOrthogonal 
 setRef 
 startSolve 
nonePCG:  Solving for p, Initial residual = 0.474204, Final residual = 9.99435e-05, No Iterations 1954
linear solve p 24437.8 [ms]
piso step 24499.2 [ms]
 contErrors 
time step continuity errors : sum local = 6.92727e-10, global = -3.71809e-22, cumulative = -7.07039e-22
ExecutionTime = 104.29 s  ClockTime = 105 s

Time = 0.00012

Courant Number mean: 0.00219263 max: 0.0832409
DILUPBiCGStab:  Solving for Ux, Initial residual = 0.0755123, Final residual = 6.31659e-05, No Iterations 5
DILUPBiCGStab:  Solving for Uy, Initial residual = 0.137005, Final residual = 4.35382e-05, No Iterations 5
DILUPBiCGStab:  Solving for Uz, Initial residual = 0.101259, Final residual = 9.33721e-05, No Iterations 5
linear solve U 858.992 [ms]
piso setup 149.878 [ms]
 correctNonOrthogonal 
 setRef 
 startSolve 
nonePCG:  Solving for p, Initial residual = 0.343018, Final residual = 9.83339e-05, No Iterations 1910
linear solve p 23828.6 [ms]
piso step 23889.8 [ms]
 contErrors 
time step continuity errors : sum local = 4.88889e-10, global = -8.25681e-23, cumulative = -7.89607e-22
piso setup 140.53 [ms]
 correctNonOrthogonal 
 setRef 
 startSolve 
nonePCG:  Solving for p, Initial residual = 0.291285, Final residual = 9.79518e-05, No Iterations 1903
linear solve p 23807.8 [ms]
piso step 23870 [ms]
 contErrors 
time step continuity errors : sum local = 4.78928e-10, global = -1.87079e-22, cumulative = -9.76686e-22
ExecutionTime = 153.16 s  ClockTime = 154 s

Time = 0.00016

Courant Number mean: 0.00272143 max: 0.0875666
DILUPBiCGStab:  Solving for Ux, Initial residual = 0.0486533, Final residual = 3.08216e-05, No Iterations 5
DILUPBiCGStab:  Solving for Uy, Initial residual = 0.0859787, Final residual = 2.4595e-05, No Iterations 5
DILUPBiCGStab:  Solving for Uz, Initial residual = 0.111111, Final residual = 6.6915e-05, No Iterations 5
linear solve U 858.504 [ms]
piso setup 148.83 [ms]
 correctNonOrthogonal 
 setRef 
 startSolve 
nonePCG:  Solving for p, Initial residual = 0.163775, Final residual = 9.94153e-05, No Iterations 1872
linear solve p 23292.8 [ms]
piso step 23353 [ms]
 contErrors 
time step continuity errors : sum local = 4.57533e-10, global = -1.57606e-23, cumulative = -9.92446e-22
piso setup 139.802 [ms]
 correctNonOrthogonal 
 setRef 
 startSolve 
nonePCG:  Solving for p, Initial residual = 0.134199, Final residual = 9.89647e-05, No Iterations 1863
linear solve p 23217.8 [ms]
piso step 23274.8 [ms]
 contErrors 
time step continuity errors : sum local = 4.59831e-10, global = -9.91342e-23, cumulative = -1.09158e-21
ExecutionTime = 200.92 s  ClockTime = 202 s

Time = 0.0002

Courant Number mean: 0.00314451 max: 0.0896317
DILUPBiCGStab:  Solving for Ux, Initial residual = 0.036503, Final residual = 1.48441e-05, No Iterations 5
DILUPBiCGStab:  Solving for Uy, Initial residual = 0.0622278, Final residual = 1.81109e-05, No Iterations 5
DILUPBiCGStab:  Solving for Uz, Initial residual = 0.090855, Final residual = 3.64738e-05, No Iterations 5
linear solve U 864.678 [ms]
piso setup 145.499 [ms]
 correctNonOrthogonal 
 setRef 
 startSolve 
nonePCG:  Solving for p, Initial residual = 0.0864183, Final residual = 9.7322e-05, No Iterations 894
linear solve p 11187.5 [ms]
piso step 11245.8 [ms]
 contErrors 
time step continuity errors : sum local = 4.57478e-10, global = -7.64449e-23, cumulative = -1.16803e-21
piso setup 144.099 [ms]
 correctNonOrthogonal 
 setRef 
 startSolve 
nonePCG:  Solving for p, Initial residual = 0.0722069, Final residual = 9.99256e-05, No Iterations 858
linear solve p 10726.5 [ms]
[...]
linear solve p 186686 [ms]
piso step 186914 [ms]
 contErrors 
time step continuity errors : sum local = 2.54171e-10, global = 4.73145e-23, cumulative = 1.24579e-22
piso setup 590.759 [ms]
 correctNonOrthogonal 
 setRef 
 startSolve 
nonePCG:  Solving for p, Initial residual = 0.504392, Final residual = 9.91037e-05, No Iterations 3126
linear solve p 186677 [ms]
piso step 186907 [ms]
 contErrors 
time step continuity errors : sum local = 2.4832e-10, global = 5.64453e-23, cumulative = 1.81024e-22
ExecutionTime = 1163.75 s  ClockTime = 1170 s

Time = 0.0001

Courant Number mean: 0.00220759 max: 0.090316
DILUPBiCGStab:  Solving for Ux, Initial residual = 0.0437032, Final residual = 0.000117706, No Iterations 5
DILUPBiCGStab:  Solving for Uy, Initial residual = 0.0872305, Final residual = 0.000107908, No Iterations 5
DILUPBiCGStab:  Solving for Uz, Initial residual = 0.134067, Final residual = 0.000387159, No Iterations 5
linear solve U 3679.76 [ms]
piso setup 609.23 [ms]
 correctNonOrthogonal 
 setRef 
 startSolve 
nonePCG:  Solving for p, Initial residual = 0.326173, Final residual = 9.97823e-05, No Iterations 1487
linear solve p 88713 [ms]
piso step 88941.4 [ms]
 contErrors 
time step continuity errors : sum local = 2.31671e-10, global = -5.33635e-23, cumulative = 1.27661e-22
piso setup 592.188 [ms]
 correctNonOrthogonal 
 setRef 
 startSolve 
nonePCG:  Solving for p, Initial residual = 0.271546, Final residual = 9.86012e-05, No Iterations 1467
linear solve p 87611.7 [ms]
piso step 87841.7 [ms]
 contErrors 
time step continuity errors : sum local = 2.20341e-10, global = -3.65174e-23, cumulative = 9.11434e-23
ExecutionTime = 1345.7 s  ClockTime = 1353 s

Time = 0.000125

Courant Number mean: 0.00255333 max: 0.091904
DILUPBiCGStab:  Solving for Ux, Initial residual = 0.0332648, Final residual = 7.29166e-05, No Iterations 5
DILUPBiCGStab:  Solving for Uy, Initial residual = 0.0630336, Final residual = 6.55547e-05, No Iterations 5
DILUPBiCGStab:  Solving for Uz, Initial residual = 0.0922799, Final residual = 0.000256897, No Iterations 5
linear solve U 3677.81 [ms]
piso setup 609.371 [ms]
 correctNonOrthogonal 
 setRef 
 startSolve 
nonePCG:  Solving for p, Initial residual = 0.218998, Final residual = 9.90381e-05, No Iterations 1437
linear solve p 85717.6 [ms]
piso step 85946.2 [ms]
 contErrors 
time step continuity errors : sum local = 1.92533e-10, global = 3.5561e-23, cumulative = 1.26704e-22
piso setup 590.995 [ms]
 correctNonOrthogonal 
 setRef 
 startSolve 
nonePCG:  Solving for p, Initial residual = 0.184874, Final residual = 9.81821e-05, No Iterations 1434
linear solve p 85594.5 [ms]
piso step 85824.3 [ms]
 contErrors 
time step continuity errors : sum local = 1.87777e-10, global = 6.35734e-23, cumulative = 1.90278e-22
ExecutionTime = 1522.64 s  ClockTime = 1530 s

Time = 0.00015

Courant Number mean: 0.00284853 max: 0.0928884
DILUPBiCGStab:  Solving for Ux, Initial residual = 0.0270568, Final residual = 5.00341e-05, No Iterations 5
DILUPBiCGStab:  Solving for Uy, Initial residual = 0.0495079, Final residual = 3.20568e-05, No Iterations 5
DILUPBiCGStab:  Solving for Uz, Initial residual = 0.0804528, Final residual = 0.000162312, No Iterations 5
linear solve U 3675.43 [ms]
piso setup 608.911 [ms]
 correctNonOrthogonal 
 setRef 
 startSolve 
nonePCG:  Solving for p, Initial residual = 0.131867, Final residual = 9.74451e-05, No Iterations 1451
linear solve p 86506.4 [ms]
piso step 86735.1 [ms]
 contErrors 
time step continuity errors : sum local = 1.95801e-10, global = -7.68024e-23, cumulative = 1.13475e-22
piso setup 591.96 [ms]
 correctNonOrthogonal 
 setRef 
 startSolve 
nonePCG:  Solving for p, Initial residual = 0.109336, Final residual = 9.8644e-05, No Iterations 1375
linear solve p 82220.9 [ms]
piso step 82451.2 [ms]
 contErrors 
time step continuity errors : sum local = 1.88956e-10, global = 1.43193e-22, cumulative = 2.56668e-22
ExecutionTime = 1697.02 s  ClockTime = 1706 s

Time = 0.000175

Courant Number mean: 0.00310899 max: 0.0935743
DILUPBiCGStab:  Solving for Ux, Initial residual = 0.0228913, Final residual = 3.66687e-05, No Iterations 5
DILUPBiCGStab:  Solving for Uy, Initial residual = 0.0407774, Final residual = 2.86052e-05, No Iterations 5
DILUPBiCGStab:  Solving for Uz, Initial residual = 0.0683236, Final residual = 0.000108483, No Iterations 5
linear solve U 3680.8 [ms]
piso setup 608.02 [ms]
 correctNonOrthogonal 
 setRef 
 startSolve 
nonePCG:  Solving for p, Initial residual = 0.0907172, Final residual = 9.88841e-05, No Iterations 1427
linear solve p 85208.1 [ms]
piso step 85436 [ms]
 contErrors 
time step continuity errors : sum local = 1.84502e-10, global = -1.05272e-24, cumulative = 2.55615e-22
piso setup 590.343 [ms]
 correctNonOrthogonal 
 setRef 
 startSolve 
nonePCG:  Solving for p, Initial residual = 0.0760157, Final residual = 9.83724e-05, No Iterations 1380
linear solve p 82433.1 [ms]
piso step 82663 [ms]
 contErrors 
time step continuity errors : sum local = 1.77624e-10, global = 4.34449e-23, cumulative = 2.9906e-22
ExecutionTime = 1870.33 s  ClockTime = 1880 s

Time = 0.0002

Courant Number mean: 0.00334351 max: 0.0940885
DILUPBiCGStab:  Solving for Ux, Initial residual = 0.0199009, Final residual = 2.8084e-05, No Iterations 5
DILUPBiCGStab:  Solving for Uy, Initial residual = 0.0346169, Final residual = 2.08578e-05, No Iterations 5
DILUPBiCGStab:  Solving for Uz, Initial residual = 0.0610871, Final residual = 8.0971e-05, No Iterations 5
linear solve U 3682.02 [ms]
piso setup 607.722 [ms]
 correctNonOrthogonal 
 setRef 
 startSolve 
nonePCG:  Solving for p, Initial residual = 0.0587773, Final residual = 9.95375e-05, No Iterations 2976
linear solve p 177391 [ms]
piso step 177618 [ms]
 contErrors 
time step continuity errors : sum local = 1.76668e-10, global = -1.97134e-23, cumulative = 2.79347e-22
piso setup 590.89 [ms]
 correctNonOrthogonal 
 setRef 
 startSolve 
nonePCG:  Solving for p, Initial residual = 0.0504995, Final residual = 9.87676e-05, No Iterations 1441
linear solve p 86062.4 [ms]
piso step 86292.5 [ms]
 contErrors 
time step continuity errors : sum local = 1.90666e-10, global = -2.5914e-23, cumulative = 2.53433e-22
ExecutionTime = 2138.98 s  ClockTime = 2150 s

Time = 0.000225

Courant Number mean: 0.00355785 max: 0.094492
DILUPBiCGStab:  Solving for Ux, Initial residual = 0.0176117, Final residual = 2.19627e-05, No Iterations 5
DILUPBiCGStab:  Solving for Uy, Initial residual = 0.0301157, Final residual = 1.90959e-05, No Iterations 5
DILUPBiCGStab:  Solving for Uz, Initial residual = 0.0557599, Final residual = 8.3627e-05, No Iterations 5
linear solve U 3676.29 [ms]
piso setup 607.397 [ms]
 correctNonOrthogonal 
 setRef 
 startSolve 
nonePCG:  Solving for p, Initial residual = 0.0437157, Final residual = 9.94036e-05, No Iterations 2958
linear solve p 176443 [ms]
piso step 176671 [ms]
 contErrors 
time step continuity errors : sum local = 1.74972e-10, global = -3.66738e-25, cumulative = 2.53066e-22
piso setup 591.87 [ms]
 correctNonOrthogonal 
 setRef 
 startSolve 
nonePCG:  Solving for p, Initial residual = 0.0379187, Final residual = 9.9656e-05, No Iterations 2943
linear solve p 175672 [ms]
piso step 175903 [ms]
 contErrors 
time step continuity errors : sum local = 1.75467e-10, global = -1.74317e-23, cumulative = 2.35634e-22
ExecutionTime = 2495.84 s  ClockTime = 2508 s

Time = 0.00025

Courant Number mean: 0.00375594 max: 0.0948197
DILUPBiCGStab:  Solving for Ux, Initial residual = 0.0158256, Final residual = 1.76788e-05, No Iterations 5
DILUPBiCGStab:  Solving for Uy, Initial residual = 0.0265961, Final residual = 1.60166e-05, No Iterations 5
DILUPBiCGStab:  Solving for Uz, Initial residual = 0.0473529, Final residual = 5.31135e-05, No Iterations 5
linear solve U 3680.02 [ms]
piso setup 609.289 [ms]
 correctNonOrthogonal 
 setRef 
 startSolve 
nonePCG:  Solving for p, Initial residual = 0.0320096, Final residual = 9.96427e-05, No Iterations 1274
linear solve p 76032.9 [ms]
piso step 76261 [ms]
 contErrors 
time step continuity errors : sum local = 1.8862e-10, global = -7.96381e-23, cumulative = 1.55996e-22
piso setup 591.5 [ms]
 correctNonOrthogonal 
 setRef 
 startSolve 
nonePCG:  Solving for p, Initial residual = 0.0285183, Final residual = 9.95251e-05, No Iterations 1241
linear solve p 74131.8 [ms]
piso step 74361.3 [ms]
 contErrors 
time step continuity errors : sum local = 1.80306e-10, global = -6.01742e-23, cumulative = 9.58221e-23
ExecutionTime = 2651.74 s  ClockTime = 2665 s

Time = 0.000275

Courant Number mean: 0.00394045 max: 0.0950927
DILUPBiCGStab:  Solving for Ux, Initial residual = 0.0143678, Final residual = 1.45315e-05, No Iterations 5
DILUPBiCGStab:  Solving for Uy, Initial residual = 0.0238367, Final residual = 1.44842e-05, No Iterations 5
DILUPBiCGStab:  Solving for Uz, Initial residual = 0.0438234, Final residual = 4.62139e-05, No Iterations 5
linear solve U 3667.73 [ms]
piso setup 609.148 [ms]
 correctNonOrthogonal 
 setRef 
 startSolve 
nonePCG:  Solving for p, Initial residual = 0.0258155, Final residual = 9.9974e-05, No Iterations 1312
linear solve p 78269 [ms]
piso step 78497.6 [ms]
 contErrors 
time step continuity errors : sum local = 1.82496e-10, global = -1.03098e-22, cumulative = -7.27624e-24
piso setup 591.157 [ms]
 correctNonOrthogonal 
 setRef 
 startSolve 
nonePCG:  Solving for p, Initial residual = 0.0233874, Final residual = 9.96654e-05, No Iterations 1254
linear solve p 74957.8 [ms]
piso step 75188.4 [ms]
 contErrors 
time step continuity errors : sum local = 1.74773e-10, global = -4.95896e-24, cumulative = -1.22352e-23
ExecutionTime = 2810.69 s  ClockTime = 2825 s

Time = 0.0003

Courant Number mean: 0.00411347 max: 0.0953247
DILUPBiCGStab:  Solving for Ux, Initial residual = 0.0131727, Final residual = 1.2215e-05, No Iterations 5
DILUPBiCGStab:  Solving for Uy, Initial residual = 0.0215646, Final residual = 1.27283e-05, No Iterations 5
DILUPBiCGStab:  Solving for Uz, Initial residual = 0.0410088, Final residual = 4.17652e-05, No Iterations 5
linear solve U 3677.57 [ms]
piso setup 609.748 [ms]
 correctNonOrthogonal 
 setRef 
 startSolve 
nonePCG:  Solving for p, Initial residual = 0.0206832, Final residual = 9.89188e-05, No Iterations 1435
linear solve p 85602.9 [ms]
piso step 85831 [ms]
 contErrors 
time step continuity errors : sum local = 1.9018e-10, global = -3.54628e-23, cumulative = -4.7698e-23
piso setup 591.618 [ms]
 correctNonOrthogonal 
 setRef 
 startSolve 
nonePCG:  Solving for p, Initial residual = 0.0191765, Final residual = 9.91242e-05, No Iterations 1347
linear solve p 80421.9 [ms]
piso step 80652.1 [ms]
 contErrors 
time step continuity errors : sum local = 1.8025e-10, global = 6.992e-23, cumulative = 2.2222e-23
ExecutionTime = 2982.37 s  ClockTime = 2997 s

Time = 0.000325

Courant Number mean: 0.00427673 max: 0.0955249
DILUPBiCGStab:  Solving for Ux, Initial residual = 0.0121539, Final residual = 1.04581e-05, No Iterations 5
DILUPBiCGStab:  Solving for Uy, Initial residual = 0.0197134, Final residual = 1.15664e-05, No Iterations 5
DILUPBiCGStab:  Solving for Uz, Initial residual = 0.0380464, Final residual = 4.19431e-05, No Iterations 5
linear solve U 3670.11 [ms]
piso setup 609.675 [ms]
 correctNonOrthogonal 
 setRef 
 startSolve 
nonePCG:  Solving for p, Initial residual = 0.0181298, Final residual = 9.85738e-05, No Iterations 1369
linear solve p 81592.6 [ms]
piso step 81820.1 [ms]
 contErrors 
time step continuity errors : sum local = 1.84036e-10, global = 2.93404e-23, cumulative = 5.15624e-23
piso setup 591.326 [ms]
 correctNonOrthogonal 
 setRef 
 startSolve 
nonePCG:  Solving for p, Initial residual = 0.0169187, Final residual = 9.99913e-05, No Iterations 1276
linear solve p 76190.4 [ms]
piso step 76420.6 [ms]
 contErrors 
time step continuity errors : sum local = 1.76139e-10, global = 1.53798e-23, cumulative = 6.69422e-23
ExecutionTime = 3145.87 s  ClockTime = 3162 s

Time = 0.00035

Courant Number mean: 0.00443142 max: 0.0957
DILUPBiCGStab:  Solving for Ux, Initial residual = 0.0112966, Final residual = 9.11863e-06, No Iterations 5
DILUPBiCGStab:  Solving for Uy, Initial residual = 0.0181184, Final residual = 1.04503e-05, No Iterations 5
DILUPBiCGStab:  Solving for Uz, Initial residual = 0.0356031, Final residual = 4.07212e-05, No Iterations 5
linear solve U 3673.45 [ms]
piso setup 607.807 [ms]
 correctNonOrthogonal 
 setRef 
 startSolve 
nonePCG:  Solving for p, Initial residual = 0.0157699, Final residual = 9.94108e-05, No Iterations 2903
linear solve p 173051 [ms]
piso step 173280 [ms]
 contErrors 
time step continuity errors : sum local = 1.73584e-10, global = -7.42498e-23, cumulative = -7.30762e-24
piso setup 590.667 [ms]
 correctNonOrthogonal 
 setRef 
 startSolve 
nonePCG:  Solving for p, Initial residual = 0.0148977, Final residual = 9.98956e-05, No Iterations 2900
linear solve p 173170 [ms]
piso step 173400 [ms]
 contErrors 
time step continuity errors : sum local = 1.74522e-10, global = 3.86384e-23, cumulative = 3.13308e-23
ExecutionTime = 3496.87 s  ClockTime = 3514 s

Time = 0.000375

Courant Number mean: 0.00457851 max: 0.095855
DILUPBiCGStab:  Solving for Ux, Initial residual = 0.0105439, Final residual = 8.06968e-06, No Iterations 5
DILUPBiCGStab:  Solving for Uy, Initial residual = 0.0167805, Final residual = 9.56969e-06, No Iterations 5
DILUPBiCGStab:  Solving for Uz, Initial residual = 0.0315629, Final residual = 2.37236e-05, No Iterations 5
linear solve U 3673.03 [ms]
piso setup 609.182 [ms]
 correctNonOrthogonal 
 setRef 
 startSolve 
nonePCG:  Solving for p, Initial residual = 0.0142993, Final residual = 9.92664e-05, No Iterations 1183
linear solve p 70558.9 [ms]
piso step 70787.1 [ms]
 contErrors 
time step continuity errors : sum local = 1.78244e-10, global = 4.79403e-23, cumulative = 7.9271e-23
piso setup 589.945 [ms]
 correctNonOrthogonal 
 setRef 
 startSolve 
nonePCG:  Solving for p, Initial residual = 0.0135471, Final residual = 9.94565e-05, No Iterations 1173
linear solve p 70138.2 [ms]
piso step 70367.8 [ms]
 contErrors 
time step continuity errors : sum local = 1.75771e-10, global = 4.6869e-23, cumulative = 1.2614e-22
ExecutionTime = 3643.36 s  ClockTime = 3662 s

Time = 0.0004

Courant Number mean: 0.004719 max: 0.0959932
DILUPBiCGStab:  Solving for Ux, Initial residual = 0.0098908, Final residual = 7.24297e-06, No Iterations 5
DILUPBiCGStab:  Solving for Uy, Initial residual = 0.0156132, Final residual = 8.79216e-06, No Iterations 5
DILUPBiCGStab:  Solving for Uz, Initial residual = 0.029978, Final residual = 1.84673e-05, No Iterations 5
linear solve U 3674.04 [ms]
piso setup 607.956 [ms]
 correctNonOrthogonal 
 setRef 
 startSolve 
nonePCG:  Solving for p, Initial residual = 0.0128584, Final residual = 9.86583e-05, No Iterations 1190
linear solve p 70956 [ms]
piso step 71184.4 [ms]
 contErrors 
time step continuity errors : sum local = 1.7775e-10, global = 2.58358e-23, cumulative = 1.51976e-22
piso setup 590.533 [ms]
 correctNonOrthogonal 
 setRef 
 startSolve 
nonePCG:  Solving for p, Initial residual = 0.0122563, Final residual = 9.76033e-05, No Iterations 1174
linear solve p 70139.1 [ms]
piso step 70369.5 [ms]
 contErrors 
time step continuity errors : sum local = 1.71561e-10, global = 6.4835e-23, cumulative = 2.16811e-22
ExecutionTime = 3790.23 s  ClockTime = 3809 s

Time = 0.000425

Courant Number mean: 0.00485338 max: 0.0961176
DILUPBiCGStab:  Solving for Ux, Initial residual = 0.00931075, Final residual = 6.58462e-06, No Iterations 5
DILUPBiCGStab:  Solving for Uy, Initial residual = 0.0146052, Final residual = 8.15471e-06, No Iterations 5
DILUPBiCGStab:  Solving for Uz, Initial residual = 0.0281453, Final residual = 1.89977e-05, No Iterations 5
linear solve U 3677.28 [ms]
piso setup 610.425 [ms]
 correctNonOrthogonal 
 setRef 
 startSolve 
nonePCG:  Solving for p, Initial residual = 0.0117056, Final residual = 9.96703e-05, No Iterations 1307
linear solve p 77984 [ms]
piso step 78212.1 [ms]
 contErrors 
time step continuity errors : sum local = 1.80755e-10, global = -4.82298e-23, cumulative = 1.68581e-22
piso setup 590.233 [ms]
 correctNonOrthogonal 
 setRef 
 startSolve 
nonePCG:  Solving for p, Initial residual = 0.0111796, Final residual = 9.97111e-05, No Iterations 1274
linear solve p 76122.6 [ms]
piso step 76352.5 [ms]
 contErrors 
time step continuity errors : sum local = 1.76708e-10, global = -2.90707e-23, cumulative = 1.3951e-22
ExecutionTime = 3950.05 s  ClockTime = 3970 s

Time = 0.00045

Courant Number mean: 0.00498241 max: 0.0962302
DILUPBiCGStab:  Solving for Ux, Initial residual = 0.00880042, Final residual = 6.05457e-06, No Iterations 5
DILUPBiCGStab:  Solving for Uy, Initial residual = 0.0137064, Final residual = 7.58722e-06, No Iterations 5
DILUPBiCGStab:  Solving for Uz, Initial residual = 0.0268815, Final residual = 1.8287e-05, No Iterations 5
linear solve U 3678.45 [ms]
piso setup 608.342 [ms]
 correctNonOrthogonal 
 setRef 
 startSolve 
nonePCG:  Solving for p, Initial residual = 0.0108863, Final residual = 9.93707e-05, No Iterations 1297
linear solve p 77346.6 [ms]
piso step 77574.5 [ms]
 contErrors 
time step continuity errors : sum local = 1.81137e-10, global = -9.77799e-23, cumulative = 4.17305e-23
piso setup 589.822 [ms]
 correctNonOrthogonal 
 setRef 
 startSolve 
nonePCG:  Solving for p, Initial residual = 0.010418, Final residual = 9.97497e-05, No Iterations 1216
linear solve p 72721.9 [ms]
piso step 72952.2 [ms]
 contErrors 
time step continuity errors : sum local = 1.76078e-10, global = -1.30532e-22, cumulative = -8.88011e-23
ExecutionTime = 4105.85 s  ClockTime = 4126 s

Time = 0.000475

Courant Number mean: 0.00510644 max: 0.096333
DILUPBiCGStab:  Solving for Ux, Initial residual = 0.0083376, Final residual = 5.62711e-06, No Iterations 5
DILUPBiCGStab:  Solving for Uy, Initial residual = 0.0129216, Final residual = 7.10725e-06, No Iterations 5
DILUPBiCGStab:  Solving for Uz, Initial residual = 0.0254262, Final residual = 1.95742e-05, No Iterations 5
linear solve U 3679.47 [ms]
piso setup 608.294 [ms]
 correctNonOrthogonal 
 setRef 
 startSolve 
nonePCG:  Solving for p, Initial residual = 0.0101883, Final residual = 9.96306e-05, No Iterations 1311
linear solve p 78234.5 [ms]
piso step 78462.9 [ms]
 contErrors 
time step continuity errors : sum local = 1.83165e-10, global = 4.11173e-23, cumulative = -4.76837e-23
piso setup 590.349 [ms]
 correctNonOrthogonal 
 setRef 
 startSolve 
nonePCG:  Solving for p, Initial residual = 0.0097486, Final residual = 9.99008e-05, No Iterations 1284
linear solve p 76698.2 [ms]
piso step 76928.1 [ms]
 contErrors 
time step continuity errors : sum local = 1.77758e-10, global = -9.06907e-23, cumulative = -1.38374e-22
ExecutionTime = 4266.48 s  ClockTime = 4288 s

Time = 0.0005

Courant Number mean: 0.00522603 max: 0.0964271
DILUPBiCGStab:  Solving for Ux, Initial residual = 0.00792806, Final residual = 5.291e-06, No Iterations 5
DILUPBiCGStab:  Solving for Uy, Initial residual = 0.0122057, Final residual = 6.6771e-06, No Iterations 5
DILUPBiCGStab:  Solving for Uz, Initial residual = 0.0242601, Final residual = 1.97404e-05, No Iterations 5
linear solve U 3676.06 [ms]
piso setup 609.342 [ms]
 correctNonOrthogonal 
 setRef 
 startSolve 
nonePCG:  Solving for p, Initial residual = 0.00958448, Final residual = 9.92594e-05, No Iterations 1295
linear solve p 77287.3 [ms]
piso step 77515.4 [ms]
 contErrors 
time step continuity errors : sum local = 1.83809e-10, global = -6.15177e-23, cumulative = -1.99892e-22
piso setup 590.445 [ms]
 correctNonOrthogonal 
 setRef 
 startSolve 
nonePCG:  Solving for p, Initial residual = 0.00918685, Final residual = 9.92721e-05, No Iterations 1180
linear solve p 70501.5 [ms]
piso step 70731.3 [ms]
 contErrors 
time step continuity errors : sum local = 1.76235e-10, global = -1.97089e-23, cumulative = -2.19601e-22
ExecutionTime = 4420.01 s  ClockTime = 4442 s

End

Finalising parallel run
================================================================================
