hash: ee22a21cff783abeff7f5d996397ee72
/*---------------------------------------------------------------------------*\
| =========                 |                                                 |
| \\      /  F ield         | OpenFOAM: The Open Source CFD Toolbox           |
|  \\    /   O peration     | Version:  2112                                  |
|   \\  /    A nd           | Website:  www.openfoam.com                      |
|    \\/     M anipulation  |                                                 |
\*---------------------------------------------------------------------------*/
Build  : d44c8318f0-20220111 OPENFOAM=2112 version=v2112
Arch   : "LSB;label=32;scalar=64"
Exec   : icoFoam -parallel
Date   : Aug 05 2022
Time   : 13:49:49
Host   : hkn0327.localdomain
PID    : 2449005
I/O    : uncollated
Case   : /hkfs/work/workspace/scratch/eq4036-lidDrivenCavity/single_node/mesh/400/matrix_solver/CG_NoPrecond_PETSC_Default/mpiRank_of/76/base
nProcs : 76
Hosts  :
(
    (hkn0327.localdomain 76)
)
Pstream initialized with:
    floatTransfer      : 0
    nProcsSimpleSum    : 0
    commsType          : nonBlocking
    polling iterations : 0
trapFpe: Floating point exception trapping enabled (FOAM_SIGFPE).
fileModificationChecking : Monitoring run-time modified files using timeStampMaster (fileModificationSkew 5, maxFileModificationPolls 20)
allowSystemOperations : Allowing user-supplied system call operations

// * * * * * * * * * * * * * * * * * * * * * * * * * * * * * * * * * * * * * //
Create time

--> FOAM Warning : 
    From void* Foam::dlLibraryTable::openLibrary(const Foam::fileName&, bool)
    in file db/dynamicLibrary/dlLibraryTable/dlLibraryTable.C at line 188
    Could not load "libpetscFoam.so"
libcuda.so.1: cannot open shared object file: No such file or directory
Create mesh for time = 0


PISO: Operating solver in PISO mode

Reading transportProperties

Reading field p

Reading field U

Reading/calculating face flux field phi


Starting time loop

Time = 2.5e-05

Courant Number mean: 0 max: 0
DILUPBiCGStab:  Solving for Ux, Initial residual = 1, Final residual = 0.00226094, No Iterations 5
DILUPBiCGStab:  Solving for Uy:  solution singularity
DILUPBiCGStab:  Solving for Uz:  solution singularity
linear solve U 1598726
================================================================================
hash: 5ee630756c5089ce20ea60cdde07e31c
/*---------------------------------------------------------------------------*\
| =========                 |                                                 |
| \\      /  F ield         | OpenFOAM: The Open Source CFD Toolbox           |
|  \\    /   O peration     | Version:  2112                                  |
|   \\  /    A nd           | Website:  www.openfoam.com                      |
|    \\/     M anipulation  |                                                 |
\*---------------------------------------------------------------------------*/
Build  : d44c8318f0-20220111 OPENFOAM=2112 version=v2112
Arch   : "LSB;label=32;scalar=64"
Exec   : icoFoam -parallel
Date   : Aug 09 2022
Time   : 11:30:34
Host   : hkn0707.localdomain
PID    : 975885
I/O    : uncollated
Case   : /hkfs/work/workspace/scratch/eq4036-lidDrivenCavity/single_node/mesh/400/matrix_solver/CG_NoPrecond_PETSC_CUDA/mpiRank_of/4/base
nProcs : 4
Hosts  :
(
    (hkn0707.localdomain 4)
)
Pstream initialized with:
    floatTransfer      : 0
    nProcsSimpleSum    : 0
    commsType          : nonBlocking
    polling iterations : 0
trapFpe: Floating point exception trapping enabled (FOAM_SIGFPE).
fileModificationChecking : Monitoring run-time modified files using timeStampMaster (fileModificationSkew 5, maxFileModificationPolls 20)
allowSystemOperations : Allowing user-supplied system call operations

// * * * * * * * * * * * * * * * * * * * * * * * * * * * * * * * * * * * * * //
Create time

Create mesh for time = 0


PISO: Operating solver in PISO mode

Reading transportProperties

Reading field p

Reading field U

Reading/calculating face flux field phi


Starting time loop

Time = 2.5e-05

Courant Number mean: 0 max: 0
DILUPBiCGStab:  Solving for Ux, Initial residual = 1, Final residual = 0.00118713, No Iterations 5
DILUPBiCGStab:  Solving for Uy:  solution singularity
DILUPBiCGStab:  Solving for Uz:  solution singularity
linear solve U 11003912
Initializing PETSc
PETSc-cg:  Solving for p, Initial residual = 1, Final residual = 9.99568e-05, No Iterations 3256
linear solve p 16896744
time step continuity errors : sum local = 2.40992e-10, global = 1.93226e-23, cumulative = 1.93226e-23
PETSc-cg:  Solving for p, Initial residual = 0.716144, Final residual = 9.90851e-05, No Iterations 3237
linear solve p 12567971
time step continuity errors : sum local = 3.22366e-10, global = -1.50296e-23, cumulative = 4.29294e-24
ExecutionTime = 109.88 s  ClockTime = 112 s

Time = 5e-05

Courant Number mean: 0.00116777 max: 0.0751289
DILUPBiCGStab:  Solving for Ux, Initial residual = 0.159858, Final residual = 0.000699206, No Iterations 5
DILUPBiCGStab:  Solving for Uy, Initial residual = 0.348607, Final residual = 0.000549935, No Iterations 5
DILUPBiCGStab:  Solving for Uz, Initial residual = 0.997103, Final residual = 0.00258441, No Iterations 5
linear solve U 22128838
PETSc-cg:  Solving for p, Initial residual = 0.6549, Final residual = 9.91431e-05, No Iterations 3180
linear solve p 12348805
time step continuity errors : sum local = 3.48135e-10, global = 4.66344e-23, cumulative = 5.09274e-23
PETSc-cg:  Solving for p, Initial residual = 0.580434, Final residual = 9.87729e-05, No Iterations 3175
linear solve p 12332064
time step continuity errors : sum local = 3.52812e-10, global = 4.30207e-24, cumulative = 5.52295e-23
ExecutionTime = 172.23 s  ClockTime = 174 s

Time = 7.5e-05

Courant Number mean: 0.00178106 max: 0.0870165
DILUPBiCGStab:  Solving for Ux, Initial residual = 0.0661404, Final residual = 0.000197637, No Iterations 5
DILUPBiCGStab:  Solving for Uy, Initial residual = 0.138167, Final residual = 0.000139212, No Iterations 5
DILUPBiCGStab:  Solving for Uz, Initial residual = 0.430577, Final residual = 0.00127506, No Iterations 5
linear solve U 29929026
PETSc-cg:  Solving for p, Initial residual = 0.55682, Final residual = 9.99626e-05, No Iterations 3133
linear solve p 12151698
time step continuity errors : sum local = 2.52875e-10, global = -3.20979e-23, cumulative = 2.31316e-23
PETSc-cg:  Solving for p, Initial residual = 0.499731, Final residual = 9.98415e-05, No Iterations 3123
linear solve p 12102119
time step continuity errors : sum local = 2.47345e-10, global = -2.36795e-23, cumulative = -5.47926e-25
ExecutionTime = 241.91 s  ClockTime = 244 s

Time = 0.0001

Courant Number mean: 0.00220834 max: 0.0903159
DILUPBiCGStab:  Solving for Ux, Initial residual = 0.0436882, Final residual = 8.49395e-05, No Iterations 5
DILUPBiCGStab:  Solving for Uy, Initial residual = 0.0871973, Final residual = 5.74933e-05, No Iterations 5
DILUPBiCGStab:  Solving for Uz, Initial residual = 0.132543, Final residual = 0.000248578, No Iterations 5
linear solve U 29998902
PETSc-cg:  Solving for p, Initial residual = 0.320107, Final residual = 9.99507e-05, No Iterations 1487
linear solve p 6206066
time step continuity errors : sum local = 2.30086e-10, global = 3.86694e-23, cumulative = 3.81215e-23
PETSc-cg:  Solving for p, Initial residual = 0.265675, Final residual = 9.79137e-05, No Iterations 1466
linear solve p 6156337
time step continuity errors : sum local = 2.16847e-10, global = -5.65197e-23, cumulative = -1.83982e-23
ExecutionTime = 299.92 s  ClockTime = 302 s

Time = 0.000125

Courant Number mean: 0.00255413 max: 0.0919042
DILUPBiCGStab:  Solving for Ux, Initial residual = 0.0332524, Final residual = 5.10828e-05, No Iterations 5
DILUPBiCGStab:  Solving for Uy, Initial residual = 0.0630107, Final residual = 3.67645e-05, No Iterations 5
DILUPBiCGStab:  Solving for Uz, Initial residual = 0.0910234, Final residual = 0.000139387, No Iterations 5
linear solve U 30073395
PETSc-cg:  Solving for p, Initial residual = 0.213943, Final residual = 9.96404e-05, No Iterations 1436
linear solve p 6025745
time step continuity errors : sum local = 1.92419e-10, global = 3.83676e-23, cumulative = 1.99694e-23
PETSc-cg:  Solving for p, Initial residual = 0.180194, Final residual = 9.77144e-05, No Iterations 1433
linear solve p 6010619
time step continuity errors : sum local = 1.85674e-10, global = 1.55588e-23, cumulative = 3.55281e-23
ExecutionTime = 357.62 s  ClockTime = 360 s

Time = 0.00015

Courant Number mean: 0.00284935 max: 0.0928888
DILUPBiCGStab:  Solving for Ux, Initial residual = 0.0270466, Final residual = 3.35989e-05, No Iterations 5
DILUPBiCGStab:  Solving for Uy, Initial residual = 0.0494904, Final residual = 1.57018e-05, No Iterations 5
DILUPBiCGStab:  Solving for Uz, Initial residual = 0.0794061, Final residual = 0.00010523, No Iterations 5
linear solve U 30016307
PETSc-cg:  Solving for p, Initial residual = 0.12744, Final residual = 9.88582e-05, No Iterations 1450
linear solve p 6088884
time step continuity errors : sum local = 1.97541e-10, global = -3.06115e-23, cumulative = 4.91664e-24
PETSc-cg:  Solving for p, Initial residual = 0.104997, Final residual = 9.90705e-05, No Iterations 1374
linear solve p 5808756
time step continuity errors : sum local = 1.8878e-10, global = -4.56772e-23, cumulative = -4.07605e-23
ExecutionTime = 415.26 s  ClockTime = 418 s

Time = 0.000175

Courant Number mean: 0.00310981 max: 0.0935747
DILUPBiCGStab:  Solving for Ux, Initial residual = 0.0228825, Final residual = 2.37574e-05, No Iterations 5
DILUPBiCGStab:  Solving for Uy, Initial residual = 0.0407639, Final residual = 1.42395e-05, No Iterations 5
DILUPBiCGStab:  Solving for Uz, Initial residual = 0.0674738, Final residual = 6.92919e-05, No Iterations 5
linear solve U 30063230
PETSc-cg:  Solving for p, Initial residual = 0.0871436, Final residual = 9.99367e-05, No Iterations 1426
linear solve p 5994855
time step continuity errors : sum local = 1.85716e-10, global = -2.68672e-23, cumulative = -6.76278e-23
PETSc-cg:  Solving for p, Initial residual = 0.0725682, Final residual = 9.95145e-05, No Iterations 1379
linear solve p 5817134
time step continuity errors : sum local = 1.78983e-10, global = 1.15541e-22, cumulative = 4.79134e-23
ExecutionTime = 472.77 s  ClockTime = 476 s

Time = 0.0002

Courant Number mean: 0.00334434 max: 0.094089
DILUPBiCGStab:  Solving for Ux, Initial residual = 0.0198933, Final residual = 1.84317e-05, No Iterations 5
DILUPBiCGStab:  Solving for Uy, Initial residual = 0.0346056, Final residual = 6.60725e-06, No Iterations 5
DILUPBiCGStab:  Solving for Uz, Initial residual = 0.06039, Final residual = 5.09954e-05, No Iterations 5
linear solve U 30048277
PETSc-cg:  Solving for p, Initial residual = 0.0554771, Final residual = 9.96305e-05, No Iterations 2976
linear solve p 11600387
time step continuity errors : sum local = 1.7618e-10, global = 3.59754e-23, cumulative = 8.38888e-23
PETSc-cg:  Solving for p, Initial residual = 0.0472305, Final residual = 9.82136e-05, No Iterations 1441
linear solve p 6044070
time step continuity errors : sum local = 1.89178e-10, global = -4.04259e-23, cumulative = 4.3463e-23
ExecutionTime = 536.12 s  ClockTime = 539 s

Time = 0.000225

Courant Number mean: 0.00355866 max: 0.0944924
DILUPBiCGStab:  Solving for Ux, Initial residual = 0.0176051, Final residual = 1.42018e-05, No Iterations 5
DILUPBiCGStab:  Solving for Uy, Initial residual = 0.0301065, Final residual = 6.61824e-06, No Iterations 5
DILUPBiCGStab:  Solving for Uz, Initial residual = 0.0551812, Final residual = 5.00106e-05, No Iterations 5
linear solve U 30115075
PETSc-cg:  Solving for p, Initial residual = 0.0410965, Final residual = 9.97647e-05, No Iterations 2957
linear solve p 11512368
time step continuity errors : sum local = 1.75094e-10, global = -1.2592e-22, cumulative = -8.2457e-23
PETSc-cg:  Solving for p, Initial residual = 0.0352652, Final residual = 9.9924e-05, No Iterations 2942
linear solve p 11467800
time step continuity errors : sum local = 1.75436e-10, global = 7.09708e-23, cumulative = -1.14862e-23
ExecutionTime = 604.86 s  ClockTime = 608 s

Time = 0.00025

Courant Number mean: 0.00375674 max: 0.0948201
DILUPBiCGStab:  Solving for Ux, Initial residual = 0.0158199, Final residual = 1.1564e-05, No Iterations 5
DILUPBiCGStab:  Solving for Uy, Initial residual = 0.0265883, Final residual = 4.02783e-06, No Iterations 5
DILUPBiCGStab:  Solving for Uz, Initial residual = 0.0468496, Final residual = 3.32689e-05, No Iterations 5
linear solve U 30076644
PETSc-cg:  Solving for p, Initial residual = 0.0294955, Final residual = 9.95421e-05, No Iterations 1275
linear solve p 5442374
time step continuity errors : sum local = 1.88116e-10, global = 3.74222e-23, cumulative = 2.5936e-23
PETSc-cg:  Solving for p, Initial residual = 0.0259889, Final residual = 9.98443e-05, No Iterations 1238
linear solve p 5307210
time step continuity errors : sum local = 1.80449e-10, global = 4.67357e-23, cumulative = 7.26717e-23
ExecutionTime = 661.27 s  ClockTime = 665 s

Time = 0.000275

Courant Number mean: 0.00394124 max: 0.0950931
DILUPBiCGStab:  Solving for Ux, Initial residual = 0.0143628, Final residual = 9.41863e-06, No Iterations 5
DILUPBiCGStab:  Solving for Uy, Initial residual = 0.0238301, Final residual = 3.84038e-06, No Iterations 5
DILUPBiCGStab:  Solving for Uz, Initial residual = 0.0433918, Final residual = 2.72532e-05, No Iterations 5
linear solve U 29996276
PETSc-cg:  Solving for p, Initial residual = 0.0236657, Final residual = 9.97431e-05, No Iterations 1310
linear solve p 5576312
time step continuity errors : sum local = 1.8179e-10, global = -1.31716e-23, cumulative = 5.95001e-23
PETSc-cg:  Solving for p, Initial residual = 0.0211884, Final residual = 9.94149e-05, No Iterations 1257
linear solve p 5388586
time step continuity errors : sum local = 1.73949e-10, global = -4.87579e-23, cumulative = 1.07423e-23
ExecutionTime = 717.92 s  ClockTime = 721 s

Time = 0.0003

Courant Number mean: 0.00411426 max: 0.095325
DILUPBiCGStab:  Solving for Ux, Initial residual = 0.0131683, Final residual = 7.84018e-06, No Iterations 5
DILUPBiCGStab:  Solving for Uy, Initial residual = 0.0215589, Final residual = 2.9151e-06, No Iterations 5
DILUPBiCGStab:  Solving for Uz, Initial residual = 0.0406377, Final residual = 2.47967e-05, No Iterations 5
linear solve U 30061741
PETSc-cg:  Solving for p, Initial residual = 0.0186952, Final residual = 9.90754e-05, No Iterations 1435
linear solve p 6039255
time step continuity errors : sum local = 1.90291e-10, global = 3.6458e-23, cumulative = 4.72003e-23
PETSc-cg:  Solving for p, Initial residual = 0.0171578, Final residual = 9.98082e-05, No Iterations 1346
linear solve p 5696322
time step continuity errors : sum local = 1.81153e-10, global = -5.6923e-23, cumulative = -9.72269e-24
ExecutionTime = 775.33 s  ClockTime = 779 s

Time = 0.000325

Courant Number mean: 0.00427751 max: 0.0955253
DILUPBiCGStab:  Solving for Ux, Initial residual = 0.0121499, Final residual = 6.56478e-06, No Iterations 5
DILUPBiCGStab:  Solving for Uy, Initial residual = 0.0197087, Final residual = 2.66557e-06, No Iterations 5
DILUPBiCGStab:  Solving for Uz, Initial residual = 0.0377249, Final residual = 2.38524e-05, No Iterations 5
linear solve U 30025314
PETSc-cg:  Solving for p, Initial residual = 0.0162891, Final residual = 9.88033e-05, No Iterations 1369
linear solve p 5805386
time step continuity errors : sum local = 1.84284e-10, global = -5.84326e-23, cumulative = -6.81552e-23
PETSc-cg:  Solving for p, Initial residual = 0.0150527, Final residual = 9.96534e-05, No Iterations 1279
linear solve p 5455952
time step continuity errors : sum local = 1.75248e-10, global = 9.6806e-24, cumulative = -5.84746e-23
ExecutionTime = 832.28 s  ClockTime = 836 s

Time = 0.00035

Courant Number mean: 0.00443218 max: 0.0957003
DILUPBiCGStab:  Solving for Ux, Initial residual = 0.0112931, Final residual = 5.5702e-06, No Iterations 5
DILUPBiCGStab:  Solving for Uy, Initial residual = 0.0181141, Final residual = 2.24692e-06, No Iterations 5
DILUPBiCGStab:  Solving for Uz, Initial residual = 0.0353178, Final residual = 2.37029e-05, No Iterations 5
linear solve U 30015377
PETSc-cg:  Solving for p, Initial residual = 0.014031, Final residual = 9.9371e-05, No Iterations 2903
linear solve p 11333575
time step continuity errors : sum local = 1.73197e-10, global = -4.4658e-23, cumulative = -1.03133e-22
PETSc-cg:  Solving for p, Initial residual = 0.0131357, Final residual = 9.97845e-05, No Iterations 2899
linear solve p 11319265
time step continuity errors : sum local = 1.74009e-10, global = -1.47515e-22, cumulative = -2.50647e-22
ExecutionTime = 900.58 s  ClockTime = 905 s

Time = 0.000375

Courant Number mean: 0.00457926 max: 0.0958553
DILUPBiCGStab:  Solving for Ux, Initial residual = 0.0105407, Final residual = 4.76274e-06, No Iterations 5
DILUPBiCGStab:  Solving for Uy, Initial residual = 0.0167768, Final residual = 2.03857e-06, No Iterations 5
DILUPBiCGStab:  Solving for Uz, Initial residual = 0.0312998, Final residual = 1.40455e-05, No Iterations 5
linear solve U 30106942
PETSc-cg:  Solving for p, Initial residual = 0.0127083, Final residual = 9.9742e-05, No Iterations 1182
linear solve p 5108790
time step continuity errors : sum local = 1.78866e-10, global = -1.48799e-22, cumulative = -3.99446e-22
PETSc-cg:  Solving for p, Initial residual = 0.0119415, Final residual = 9.93626e-05, No Iterations 1172
linear solve p 5085524
time step continuity errors : sum local = 1.75351e-10, global = 8.78242e-23, cumulative = -3.11622e-22
ExecutionTime = 956.5 s  ClockTime = 961 s

Time = 0.0004

Courant Number mean: 0.00471974 max: 0.0959935
DILUPBiCGStab:  Solving for Ux, Initial residual = 0.00988792, Final residual = 4.11492e-06, No Iterations 5
DILUPBiCGStab:  Solving for Uy, Initial residual = 0.0156099, Final residual = 1.84565e-06, No Iterations 5
DILUPBiCGStab:  Solving for Uz, Initial residual = 0.029745, Final residual = 1.03833e-05, No Iterations 5
linear solve U 30008392
PETSc-cg:  Solving for p, Initial residual = 0.0113714, Final residual = 9.97618e-05, No Iterations 1187
linear solve p 5149224
time step continuity errors : sum local = 1.79497e-10, global = -3.93751e-24, cumulative = -3.15559e-22
PETSc-cg:  Solving for p, Initial residual = 0.0107655, Final residual = 9.97299e-05, No Iterations 1173
linear solve p 5094328
time step continuity errors : sum local = 1.75024e-10, global = -1.13059e-22, cumulative = -4.28618e-22
ExecutionTime = 1012.42 s  ClockTime = 1017 s

Time = 0.000425

Courant Number mean: 0.00485411 max: 0.0961178
DILUPBiCGStab:  Solving for Ux, Initial residual = 0.00930808, Final residual = 3.59086e-06, No Iterations 5
DILUPBiCGStab:  Solving for Uy, Initial residual = 0.0146024, Final residual = 1.68664e-06, No Iterations 5
DILUPBiCGStab:  Solving for Uz, Initial residual = 0.0279347, Final residual = 1.05303e-05, No Iterations 5
linear solve U 30033163
PETSc-cg:  Solving for p, Initial residual = 0.0103044, Final residual = 9.96319e-05, No Iterations 1305
linear solve p 5549647
time step continuity errors : sum local = 1.80558e-10, global = 6.37381e-23, cumulative = -3.6488e-22
PETSc-cg:  Solving for p, Initial residual = 0.00976635, Final residual = 9.95567e-05, No Iterations 1274
linear solve p 5434819
time step continuity errors : sum local = 1.76228e-10, global = 4.57281e-23, cumulative = -3.19152e-22
ExecutionTime = 1069.08 s  ClockTime = 1074 s

Time = 0.00045

Courant Number mean: 0.00498313 max: 0.0962305
DILUPBiCGStab:  Solving for Ux, Initial residual = 0.00879802, Final residual = 3.16341e-06, No Iterations 5
DILUPBiCGStab:  Solving for Uy, Initial residual = 0.0137038, Final residual = 1.52968e-06, No Iterations 5
DILUPBiCGStab:  Solving for Uz, Initial residual = 0.0266951, Final residual = 1.0323e-05, No Iterations 5
linear solve U 29989765
PETSc-cg:  Solving for p, Initial residual = 0.00951857, Final residual = 9.87352e-05, No Iterations 1298
linear solve p 5532084
time step continuity errors : sum local = 1.79916e-10, global = 1.71736e-22, cumulative = -1.47415e-22
PETSc-cg:  Solving for p, Initial residual = 0.00903828, Final residual = 9.99758e-05, No Iterations 1217
linear solve p 5249354
time step continuity errors : sum local = 1.76254e-10, global = -1.69926e-22, cumulative = -3.17342e-22
ExecutionTime = 1125.55 s  ClockTime = 1130 s

Time = 0.000475

Courant Number mean: 0.00510714 max: 0.0963332
DILUPBiCGStab:  Solving for Ux, Initial residual = 0.00833534, Final residual = 2.8118e-06, No Iterations 5
DILUPBiCGStab:  Solving for Uy, Initial residual = 0.0129194, Final residual = 1.40108e-06, No Iterations 5
DILUPBiCGStab:  Solving for Uz, Initial residual = 0.0252549, Final residual = 1.07464e-05, No Iterations 5
linear solve U 30045567
PETSc-cg:  Solving for p, Initial residual = 0.00891194, Final residual = 9.96556e-05, No Iterations 1310
linear solve p 5570005
time step continuity errors : sum local = 1.83157e-10, global = 1.13039e-22, cumulative = -2.04303e-22
PETSc-cg:  Solving for p, Initial residual = 0.00846096, Final residual = 9.9887e-05, No Iterations 1284
linear solve p 5471332
time step continuity errors : sum local = 1.77563e-10, global = -3.27423e-23, cumulative = -2.37045e-22
ExecutionTime = 1182.25 s  ClockTime = 1187 s

Time = 0.0005

Courant Number mean: 0.00522673 max: 0.0964273
DILUPBiCGStab:  Solving for Ux, Initial residual = 0.00792604, Final residual = 2.51919e-06, No Iterations 5
DILUPBiCGStab:  Solving for Uy, Initial residual = 0.0122035, Final residual = 1.28424e-06, No Iterations 5
DILUPBiCGStab:  Solving for Uz, Initial residual = 0.0241053, Final residual = 1.1035e-05, No Iterations 5
linear solve U 30052824
PETSc-cg:  Solving for p, Initial residual = 0.00833041, Final residual = 9.87536e-05, No Iterations 1296
linear solve p 5516685
time step continuity errors : sum local = 1.82901e-10, global = -4.51227e-23, cumulative = -2.82168e-22
PETSc-cg:  Solving for p, Initial residual = 0.0079192, Final residual = 9.98855e-05, No Iterations 1180
linear solve p 5119742
time step continuity errors : sum local = 1.77129e-10, global = 3.31024e-23, cumulative = -2.49066e-22
ExecutionTime = 1238.55 s  ClockTime = 1243 s

End

Finalizing PETSc
Finalising parallel run
================================================================================
hash: 026e1c554901966c07a98c97a7a66cf6
/*---------------------------------------------------------------------------*\
| =========                 |                                                 |
| \\      /  F ield         | OpenFOAM: The Open Source CFD Toolbox           |
|  \\    /   O peration     | Version:  2112                                  |
|   \\  /    A nd           | Website:  www.openfoam.com                      |
|    \\/     M anipulation  |                                                 |
\*---------------------------------------------------------------------------*/
Build  : d44c8318f0-20220111 OPENFOAM=2112 version=v2112
Arch   : "LSB;label=32;scalar=64"
Exec   : icoFoam -parallel
Date   : Aug 05 2022
Time   : 13:46:31
Host   : hkn0633.localdomain
PID    : 793615
I/O    : uncollated
Case   : /hkfs/work/workspace/scratch/eq4036-lidDrivenCavity/single_node/mesh/400/matrix_solver/CG_NoPrecond_Ginkgo_CUDA/mpiRank_gko/4/base
nProcs : 4
Hosts  :
(
    (hkn0633.localdomain 4)
)
Pstream initialized with:
    floatTransfer      : 0
    nProcsSimpleSum    : 0
    commsType          : nonBlocking
    polling iterations : 0
trapFpe: Floating point exception trapping enabled (FOAM_SIGFPE).
fileModificationChecking : Monitoring run-time modified files using timeStampMaster (fileModificationSkew 5, maxFileModificationPolls 20)
allowSystemOperations : Allowing user-supplied system call operations

// * * * * * * * * * * * * * * * * * * * * * * * * * * * * * * * * * * * * * //
Create time

Create mesh for time = 0


PISO: Operating solver in PISO mode

Reading transportProperties

Reading field p

Reading field U

Reading/calculating face flux field phi


Starting time loop

Time = 2.5e-05

Courant Number mean: 0 max: 0
DILUPBiCGStab:  Solving for Ux, Initial residual = 1, Final residual = 0.00118713, No Iterations 5
DILUPBiCGStab:  Solving for Uy:  solution singularity
DILUPBiCGStab:  Solving for Uz:  solution singularity
linear solve U 11050662
[OGL LOG][Proc: 0]global_index_init: 5.006 [ms]
[OGL LOG][Proc: 0]global_index_init: 0.002 [ms]
[OGL LOG][Proc: 0]init_host_sparsity_pattern: 1.18731e+06 [ms]
[OGL LOG][Proc: 0]update_host_matrix_data: 436.09 [ms]
[OGL LOG][Proc: 0]convert_coo_to_csr: 1734.69 [ms]
[OGL LOG][lduLduBase.H:153] Initialising OGL
	Version:  484b851
	branch: HEAD 
	Ginkgo version: 1.5.0(develop)
	MPI is GPU aware: 1)
	Forces host buffer based communication: 0
[OGL LOG][Proc: 0]gather_global_matrix: 0.005 [ms]
[OGL LOG][Proc: 0]generate_distributed_matrix: 247.664 [ms]
[OGL LOG][Proc: 0]init_precond: 0.073 [ms]
[OGL LOG][Proc: 0]generate_solver: 0.018 [ms]
[OGL LOG][Proc: 0]solve: 13823 [ms]
[OGL LOG][Proc: 0]copy_x_back: 45.256 [ms]
[OGL LOG][lduLduBase.H:380] 
Statistics:
	Time per iteration: 4244 [mu s]
	Time per iteration and DOF: 0.066312 [ns]
	Retrieve results bandwith 2.828000 [GByte/s]
nonecudaGKOCG:  Solving for p, Initial residual = 1, Final residual = 9.99662e-05, No Iterations 3257
linear solve p 1206131566
time step continuity errors : sum local = 2.41015e-10, global = 1.49604e-23, cumulative = 1.49604e-23
[OGL LOG][Proc: 0]global_index_init: 0.029 [ms]
[OGL LOG][Proc: 0]global_index_init: 0.001 [ms]
[OGL LOG][Proc: 0]update_host_matrix_data: 432.407 [ms]
[OGL LOG][Proc: 0]gather_global_matrix: 0 [ms]
[OGL LOG][Proc: 0]generate_distributed_matrix: 220.659 [ms]
[OGL LOG][Proc: 0]init_precond: 0.031 [ms]
[OGL LOG][Proc: 0]generate_solver: 0.001 [ms]
[OGL LOG][Proc: 0]solve: 13296.1 [ms]
[OGL LOG][Proc: 0]copy_x_back: 62.911 [ms]
[OGL LOG][lduLduBase.H:380] 
Statistics:
	Time per iteration: 4089 [mu s]
	Time per iteration and DOF: 0.063891 [ns]
	Retrieve results bandwith 2.034000 [GByte/s]
nonecudaGKOCG:  Solving for p, Initial residual = 0.716144, Final residual = 7.57893e-05, No Iterations 3251
linear solve p 14131850
time step continuity errors : sum local = 2.46575e-10, global = -2.22638e-23, cumulative = -7.30346e-24
ExecutionTime = 1299.57 s  ClockTime = 1302 s

Time = 5e-05

Courant Number mean: 0.00116777 max: 0.0751289
DILUPBiCGStab:  Solving for Ux, Initial residual = 0.159858, Final residual = 0.000699206, No Iterations 5
DILUPBiCGStab:  Solving for Uy, Initial residual = 0.348607, Final residual = 0.000549934, No Iterations 5
DILUPBiCGStab:  Solving for Uz, Initial residual = 0.997113, Final residual = 0.00258422, No Iterations 5
linear solve U 22255735
[OGL LOG][Proc: 0]global_index_init: 0.01 [ms]
[OGL LOG][Proc: 0]global_index_init: 0.001 [ms]
[OGL LOG][Proc: 0]update_host_matrix_data: 431.966 [ms]
[OGL LOG][Proc: 0]gather_global_matrix: 0 [ms]
[OGL LOG][Proc: 0]generate_distributed_matrix: 219.069 [ms]
[OGL LOG][Proc: 0]init_precond: 0.041 [ms]
[OGL LOG][Proc: 0]generate_solver: 0.002 [ms]
[OGL LOG][Proc: 0]solve: 13284 [ms]
[OGL LOG][Proc: 0]copy_x_back: 63.199 [ms]
[OGL LOG][lduLduBase.H:380] 
Statistics:
	Time per iteration: 4086 [mu s]
	Time per iteration and DOF: 0.063844 [ns]
	Retrieve results bandwith 2.025000 [GByte/s]
nonecudaGKOCG:  Solving for p, Initial residual = 0.654917, Final residual = 4.2093e-05, No Iterations 3251
linear solve p 14151207
time step continuity errors : sum local = 1.47808e-10, global = 5.34743e-24, cumulative = -1.95603e-24
[OGL LOG][Proc: 0]global_index_init: 0.014 [ms]
[OGL LOG][Proc: 0]global_index_init: 0.001 [ms]
[OGL LOG][Proc: 0]update_host_matrix_data: 434.553 [ms]
[OGL LOG][Proc: 0]gather_global_matrix: 0 [ms]
[OGL LOG][Proc: 0]generate_distributed_matrix: 208.947 [ms]
[OGL LOG][Proc: 0]init_precond: 0.037 [ms]
[OGL LOG][Proc: 0]generate_solver: 0.002 [ms]
[OGL LOG][Proc: 0]solve: 13286.5 [ms]
[OGL LOG][Proc: 0]copy_x_back: 64.404 [ms]
[OGL LOG][lduLduBase.H:380] 
Statistics:
	Time per iteration: 4086 [mu s]
	Time per iteration and DOF: 0.063844 [ns]
	Retrieve results bandwith 1.987000 [GByte/s]
nonecudaGKOCG:  Solving for p, Initial residual = 0.580445, Final residual = 3.65549e-05, No Iterations 3251
linear solve p 14134944
time step continuity errors : sum local = 1.30574e-10, global = 5.57216e-25, cumulative = -1.39882e-24
ExecutionTime = 1365.79 s  ClockTime = 1368 s

Time = 7.5e-05

Courant Number mean: 0.00178106 max: 0.0870165
DILUPBiCGStab:  Solving for Ux, Initial residual = 0.0661401, Final residual = 0.000197633, No Iterations 5
DILUPBiCGStab:  Solving for Uy, Initial residual = 0.138167, Final residual = 0.000139213, No Iterations 5
DILUPBiCGStab:  Solving for Uz, Initial residual = 0.426941, Final residual = 0.00125425, No Iterations 5
linear solve U 22198491
[OGL LOG][Proc: 0]global_index_init: 0.006 [ms]
[OGL LOG][Proc: 0]global_index_init: 0.001 [ms]
[OGL LOG][Proc: 0]update_host_matrix_data: 431.429 [ms]
[OGL LOG][Proc: 0]gather_global_matrix: 0 [ms]
[OGL LOG][Proc: 0]generate_distributed_matrix: 221.508 [ms]
[OGL LOG][Proc: 0]init_precond: 0.03 [ms]
[OGL LOG][Proc: 0]generate_solver: 0.001 [ms]
[OGL LOG][Proc: 0]solve: 12798.3 [ms]
[OGL LOG][Proc: 0]copy_x_back: 63.371 [ms]
[OGL LOG][lduLduBase.H:380] 
Statistics:
	Time per iteration: 4100 [mu s]
	Time per iteration and DOF: 0.064062 [ns]
	Retrieve results bandwith 2.019000 [GByte/s]
nonecudaGKOCG:  Solving for p, Initial residual = 0.556719, Final residual = 9.12387e-05, No Iterations 3121
linear solve p 13666872
time step continuity errors : sum local = 2.30742e-10, global = 2.53549e-23, cumulative = 2.39561e-23
[OGL LOG][Proc: 0]global_index_init: 0.007 [ms]
[OGL LOG][Proc: 0]global_index_init: 0.001 [ms]
[OGL LOG][Proc: 0]update_host_matrix_data: 434.74 [ms]
[OGL LOG][Proc: 0]gather_global_matrix: 0 [ms]
[OGL LOG][Proc: 0]generate_distributed_matrix: 213.203 [ms]
[OGL LOG][Proc: 0]init_precond: 0.028 [ms]
[OGL LOG][Proc: 0]generate_solver: 0.001 [ms]
[OGL LOG][Proc: 0]solve: 12701.7 [ms]
[OGL LOG][Proc: 0]copy_x_back: 63.617 [ms]
[OGL LOG][lduLduBase.H:380] 
Statistics:
	Time per iteration: 4095 [mu s]
	Time per iteration and DOF: 0.063984 [ns]
	Retrieve results bandwith 2.012000 [GByte/s]
nonecudaGKOCG:  Solving for p, Initial residual = 0.499621, Final residual = 9.28536e-05, No Iterations 3101
linear solve p 13568304
time step continuity errors : sum local = 2.29977e-10, global = 1.09807e-23, cumulative = 3.49368e-23
ExecutionTime = 1430.83 s  ClockTime = 1434 s

Time = 0.0001

Courant Number mean: 0.00220834 max: 0.0903159
DILUPBiCGStab:  Solving for Ux, Initial residual = 0.0436883, Final residual = 8.49378e-05, No Iterations 5
DILUPBiCGStab:  Solving for Uy, Initial residual = 0.0871973, Final residual = 5.74937e-05, No Iterations 5
DILUPBiCGStab:  Solving for Uz, Initial residual = 0.132512, Final residual = 0.00024808, No Iterations 5
linear solve U 22332154
[OGL LOG][Proc: 0]global_index_init: 0.007 [ms]
[OGL LOG][Proc: 0]global_index_init: 0.001 [ms]
[OGL LOG][Proc: 0]update_host_matrix_data: 436.911 [ms]
[OGL LOG][Proc: 0]gather_global_matrix: 0 [ms]
[OGL LOG][Proc: 0]generate_distributed_matrix: 225.217 [ms]
[OGL LOG][Proc: 0]init_precond: 0.03 [ms]
[OGL LOG][Proc: 0]generate_solver: 0.001 [ms]
[OGL LOG][Proc: 0]solve: 12708.3 [ms]
[OGL LOG][Proc: 0]copy_x_back: 63.85 [ms]
[OGL LOG][lduLduBase.H:380] 
Statistics:
	Time per iteration: 4098 [mu s]
	Time per iteration and DOF: 0.064031 [ns]
	Retrieve results bandwith 2.004000 [GByte/s]
nonecudaGKOCG:  Solving for p, Initial residual = 0.320064, Final residual = 6.31045e-05, No Iterations 3101
linear solve p 13570832
time step continuity errors : sum local = 1.35798e-10, global = -2.87147e-23, cumulative = 6.22211e-24
[OGL LOG][Proc: 0]global_index_init: 0.007 [ms]
[OGL LOG][Proc: 0]global_index_init: 0.001 [ms]
[OGL LOG][Proc: 0]update_host_matrix_data: 436.758 [ms]
[OGL LOG][Proc: 0]gather_global_matrix: 0 [ms]
[OGL LOG][Proc: 0]generate_distributed_matrix: 210.16 [ms]
[OGL LOG][Proc: 0]init_precond: 0.031 [ms]
[OGL LOG][Proc: 0]generate_solver: 0.001 [ms]
[OGL LOG][Proc: 0]solve: 12723.9 [ms]
[OGL LOG][Proc: 0]copy_x_back: 63.293 [ms]
[OGL LOG][lduLduBase.H:380] 
Statistics:
	Time per iteration: 4103 [mu s]
	Time per iteration and DOF: 0.064109 [ns]
	Retrieve results bandwith 2.022000 [GByte/s]
nonecudaGKOCG:  Solving for p, Initial residual = 0.265606, Final residual = 5.48244e-05, No Iterations 3101
linear solve p 13566730
time step continuity errors : sum local = 1.18857e-10, global = -3.84958e-24, cumulative = 2.37253e-24
ExecutionTime = 1495.88 s  ClockTime = 1499 s

Time = 0.000125

Courant Number mean: 0.00255413 max: 0.0919042
DILUPBiCGStab:  Solving for Ux, Initial residual = 0.0332573, Final residual = 5.10929e-05, No Iterations 5
DILUPBiCGStab:  Solving for Uy, Initial residual = 0.0629924, Final residual = 3.67497e-05, No Iterations 5
DILUPBiCGStab:  Solving for Uz, Initial residual = 0.0875516, Final residual = 0.000132997, No Iterations 5
linear solve U 22191081
[OGL LOG][Proc: 0]global_index_init: 0.007 [ms]
[OGL LOG][Proc: 0]global_index_init: 0.001 [ms]
[OGL LOG][Proc: 0]update_host_matrix_data: 431.721 [ms]
[OGL LOG][Proc: 0]gather_global_matrix: 0 [ms]
[OGL LOG][Proc: 0]generate_distributed_matrix: 220.929 [ms]
[OGL LOG][Proc: 0]init_precond: 0.036 [ms]
[OGL LOG][Proc: 0]generate_solver: 0.001 [ms]
[OGL LOG][Proc: 0]solve: 12728.9 [ms]
[OGL LOG][Proc: 0]copy_x_back: 62.979 [ms]
[OGL LOG][lduLduBase.H:380] 
Statistics:
	Time per iteration: 4104 [mu s]
	Time per iteration and DOF: 0.064125 [ns]
	Retrieve results bandwith 2.032000 [GByte/s]
nonecudaGKOCG:  Solving for p, Initial residual = 0.213874, Final residual = 5.90674e-05, No Iterations 3101
linear solve p 13580488
time step continuity errors : sum local = 1.12662e-10, global = 3.63309e-23, cumulative = 3.87034e-23
[OGL LOG][Proc: 0]global_index_init: 0.007 [ms]
[OGL LOG][Proc: 0]global_index_init: 0.001 [ms]
[OGL LOG][Proc: 0]update_host_matrix_data: 434.993 [ms]
[OGL LOG][Proc: 0]gather_global_matrix: 0 [ms]
[OGL LOG][Proc: 0]generate_distributed_matrix: 206.639 [ms]
[OGL LOG][Proc: 0]init_precond: 0.029 [ms]
[OGL LOG][Proc: 0]generate_solver: 0.001 [ms]
[OGL LOG][Proc: 0]solve: 12702.9 [ms]
[OGL LOG][Proc: 0]copy_x_back: 64.109 [ms]
[OGL LOG][lduLduBase.H:380] 
Statistics:
	Time per iteration: 4096 [mu s]
	Time per iteration and DOF: 0.064000 [ns]
	Retrieve results bandwith 1.996000 [GByte/s]
nonecudaGKOCG:  Solving for p, Initial residual = 0.180082, Final residual = 5.36237e-05, No Iterations 3101
linear solve p 13542374
time step continuity errors : sum local = 1.01872e-10, global = 1.69112e-23, cumulative = 5.56146e-23
ExecutionTime = 1560.9 s  ClockTime = 1564 s

Time = 0.00015

Courant Number mean: 0.00284935 max: 0.0928888
DILUPBiCGStab:  Solving for Ux, Initial residual = 0.0270451, Final residual = 3.35965e-05, No Iterations 5
DILUPBiCGStab:  Solving for Uy, Initial residual = 0.0494931, Final residual = 1.56885e-05, No Iterations 5
DILUPBiCGStab:  Solving for Uz, Initial residual = 0.0765412, Final residual = 9.85666e-05, No Iterations 5
linear solve U 22260212
[OGL LOG][Proc: 0]global_index_init: 0.008 [ms]
[OGL LOG][Proc: 0]global_index_init: 0.001 [ms]
[OGL LOG][Proc: 0]update_host_matrix_data: 433.503 [ms]
[OGL LOG][Proc: 0]gather_global_matrix: 0 [ms]
[OGL LOG][Proc: 0]generate_distributed_matrix: 220.644 [ms]
[OGL LOG][Proc: 0]init_precond: 0.033 [ms]
[OGL LOG][Proc: 0]generate_solver: 0.001 [ms]
[OGL LOG][Proc: 0]solve: 12712.3 [ms]
[OGL LOG][Proc: 0]copy_x_back: 64.17 [ms]
[OGL LOG][lduLduBase.H:380] 
Statistics:
	Time per iteration: 4099 [mu s]
	Time per iteration and DOF: 0.064047 [ns]
	Retrieve results bandwith 1.994000 [GByte/s]
nonecudaGKOCG:  Solving for p, Initial residual = 0.127254, Final residual = 2.89024e-05, No Iterations 3101
linear solve p 13565346
time step continuity errors : sum local = 5.34092e-11, global = -8.21948e-24, cumulative = 4.73952e-23
[OGL LOG][Proc: 0]global_index_init: 0.007 [ms]
[OGL LOG][Proc: 0]global_index_init: 0.001 [ms]
[OGL LOG][Proc: 0]update_host_matrix_data: 444.014 [ms]
[OGL LOG][Proc: 0]gather_global_matrix: 0 [ms]
[OGL LOG][Proc: 0]generate_distributed_matrix: 236.952 [ms]
[OGL LOG][Proc: 0]init_precond: 0.03 [ms]
[OGL LOG][Proc: 0]generate_solver: 0.001 [ms]
[OGL LOG][Proc: 0]solve: 12262.2 [ms]
[OGL LOG][Proc: 0]copy_x_back: 62.939 [ms]
[OGL LOG][lduLduBase.H:380] 
Statistics:
	Time per iteration: 4118 [mu s]
	Time per iteration and DOF: 0.064344 [ns]
	Retrieve results bandwith 2.033000 [GByte/s]
nonecudaGKOCG:  Solving for p, Initial residual = 0.104785, Final residual = 9.29527e-05, No Iterations 2977
linear solve p 13127001
time step continuity errors : sum local = 1.7199e-10, global = 2.16771e-23, cumulative = 6.90723e-23
ExecutionTime = 1625.48 s  ClockTime = 1629 s

Time = 0.000175

Courant Number mean: 0.00310981 max: 0.0935747
DILUPBiCGStab:  Solving for Ux, Initial residual = 0.0228865, Final residual = 2.37603e-05, No Iterations 5
DILUPBiCGStab:  Solving for Uy, Initial residual = 0.0407489, Final residual = 1.4234e-05, No Iterations 5
DILUPBiCGStab:  Solving for Uz, Initial residual = 0.0654786, Final residual = 6.31407e-05, No Iterations 5
linear solve U 22206186
[OGL LOG][Proc: 0]global_index_init: 0.009 [ms]
[OGL LOG][Proc: 0]global_index_init: 0.001 [ms]
[OGL LOG][Proc: 0]update_host_matrix_data: 433.356 [ms]
[OGL LOG][Proc: 0]gather_global_matrix: 0 [ms]
[OGL LOG][Proc: 0]generate_distributed_matrix: 221.144 [ms]
[OGL LOG][Proc: 0]init_precond: 0.031 [ms]
[OGL LOG][Proc: 0]generate_solver: 0.001 [ms]
[OGL LOG][Proc: 0]solve: 12699.8 [ms]
[OGL LOG][Proc: 0]copy_x_back: 63.634 [ms]
[OGL LOG][lduLduBase.H:380] 
Statistics:
	Time per iteration: 4103 [mu s]
	Time per iteration and DOF: 0.064109 [ns]
	Retrieve results bandwith 2.011000 [GByte/s]
nonecudaGKOCG:  Solving for p, Initial residual = 0.0870622, Final residual = 3.2251e-05, No Iterations 3095
linear solve p 13556172
time step continuity errors : sum local = 5.78053e-11, global = 4.64286e-23, cumulative = 1.15501e-22
[OGL LOG][Proc: 0]global_index_init: 0.008 [ms]
[OGL LOG][Proc: 0]global_index_init: 0 [ms]
[OGL LOG][Proc: 0]update_host_matrix_data: 434.046 [ms]
[OGL LOG][Proc: 0]gather_global_matrix: 0 [ms]
[OGL LOG][Proc: 0]generate_distributed_matrix: 202.992 [ms]
[OGL LOG][Proc: 0]init_precond: 0.029 [ms]
[OGL LOG][Proc: 0]generate_solver: 0.001 [ms]
[OGL LOG][Proc: 0]solve: 12605.7 [ms]
[OGL LOG][Proc: 0]copy_x_back: 63.793 [ms]
[OGL LOG][lduLduBase.H:380] 
Statistics:
	Time per iteration: 4098 [mu s]
	Time per iteration and DOF: 0.064031 [ns]
	Retrieve results bandwith 2.006000 [GByte/s]
nonecudaGKOCG:  Solving for p, Initial residual = 0.0724792, Final residual = 4.42668e-05, No Iterations 3076
linear solve p 13439694
time step continuity errors : sum local = 7.93478e-11, global = -6.70424e-23, cumulative = 4.84585e-23
ExecutionTime = 1690.36 s  ClockTime = 1694 s

Time = 0.0002

Courant Number mean: 0.00334434 max: 0.094089
DILUPBiCGStab:  Solving for Ux, Initial residual = 0.0198902, Final residual = 1.84268e-05, No Iterations 5
DILUPBiCGStab:  Solving for Uy, Initial residual = 0.0346112, Final residual = 6.59865e-06, No Iterations 5
DILUPBiCGStab:  Solving for Uz, Initial residual = 0.0579096, Final residual = 4.33942e-05, No Iterations 5
linear solve U 22176887
[OGL LOG][Proc: 0]global_index_init: 0.006 [ms]
[OGL LOG][Proc: 0]global_index_init: 0.001 [ms]
[OGL LOG][Proc: 0]update_host_matrix_data: 432.531 [ms]
[OGL LOG][Proc: 0]gather_global_matrix: 0 [ms]
[OGL LOG][Proc: 0]generate_distributed_matrix: 220.444 [ms]
[OGL LOG][Proc: 0]init_precond: 0.037 [ms]
[OGL LOG][Proc: 0]generate_solver: 0.002 [ms]
[OGL LOG][Proc: 0]solve: 12617.2 [ms]
[OGL LOG][Proc: 0]copy_x_back: 63.264 [ms]
[OGL LOG][lduLduBase.H:380] 
Statistics:
	Time per iteration: 4101 [mu s]
	Time per iteration and DOF: 0.064078 [ns]
	Retrieve results bandwith 2.023000 [GByte/s]
nonecudaGKOCG:  Solving for p, Initial residual = 0.0550864, Final residual = 3.63538e-05, No Iterations 3076
linear solve p 13476138
time step continuity errors : sum local = 6.42578e-11, global = 3.0118e-23, cumulative = 7.85765e-23
[OGL LOG][Proc: 0]global_index_init: 0.007 [ms]
[OGL LOG][Proc: 0]global_index_init: 0.001 [ms]
[OGL LOG][Proc: 0]update_host_matrix_data: 435.511 [ms]
[OGL LOG][Proc: 0]gather_global_matrix: 0 [ms]
[OGL LOG][Proc: 0]generate_distributed_matrix: 220.891 [ms]
[OGL LOG][Proc: 0]init_precond: 0.031 [ms]
[OGL LOG][Proc: 0]generate_solver: 0.001 [ms]
[OGL LOG][Proc: 0]solve: 12622.6 [ms]
[OGL LOG][Proc: 0]copy_x_back: 62.974 [ms]
[OGL LOG][lduLduBase.H:380] 
Statistics:
	Time per iteration: 4103 [mu s]
	Time per iteration and DOF: 0.064109 [ns]
	Retrieve results bandwith 2.032000 [GByte/s]
nonecudaGKOCG:  Solving for p, Initial residual = 0.0468658, Final residual = 3.20891e-05, No Iterations 3076
linear solve p 13466961
time step continuity errors : sum local = 5.67746e-11, global = -6.04603e-23, cumulative = 1.81162e-23
ExecutionTime = 1755.22 s  ClockTime = 1759 s

Time = 0.000225

Courant Number mean: 0.00355866 max: 0.0944924
DILUPBiCGStab:  Solving for Ux, Initial residual = 0.0176109, Final residual = 1.42004e-05, No Iterations 5
DILUPBiCGStab:  Solving for Uy, Initial residual = 0.030084, Final residual = 6.6324e-06, No Iterations 5
DILUPBiCGStab:  Solving for Uz, Initial residual = 0.0517155, Final residual = 3.13375e-05, No Iterations 5
linear solve U 22255418
[OGL LOG][Proc: 0]global_index_init: 0.008 [ms]
[OGL LOG][Proc: 0]global_index_init: 0.001 [ms]
[OGL LOG][Proc: 0]update_host_matrix_data: 431.507 [ms]
[OGL LOG][Proc: 0]gather_global_matrix: 0 [ms]
[OGL LOG][Proc: 0]generate_distributed_matrix: 222.857 [ms]
[OGL LOG][Proc: 0]init_precond: 0.028 [ms]
[OGL LOG][Proc: 0]generate_solver: 0.001 [ms]
[OGL LOG][Proc: 0]solve: 12152.1 [ms]
[OGL LOG][Proc: 0]copy_x_back: 62.645 [ms]
[OGL LOG][lduLduBase.H:380] 
Statistics:
	Time per iteration: 4115 [mu s]
	Time per iteration and DOF: 0.064297 [ns]
	Retrieve results bandwith 2.043000 [GByte/s]
nonecudaGKOCG:  Solving for p, Initial residual = 0.0406719, Final residual = 8.80766e-05, No Iterations 2953
linear solve p 13004654
time step continuity errors : sum local = 1.545e-10, global = -5.4757e-23, cumulative = -3.66408e-23
[OGL LOG][Proc: 0]global_index_init: 0.01 [ms]
[OGL LOG][Proc: 0]global_index_init: 0.001 [ms]
[OGL LOG][Proc: 0]update_host_matrix_data: 434.751 [ms]
[OGL LOG][Proc: 0]gather_global_matrix: 0 [ms]
[OGL LOG][Proc: 0]generate_distributed_matrix: 194.479 [ms]
[OGL LOG][Proc: 0]init_precond: 0.038 [ms]
[OGL LOG][Proc: 0]generate_solver: 0.002 [ms]
[OGL LOG][Proc: 0]solve: 12126.6 [ms]
[OGL LOG][Proc: 0]copy_x_back: 64.212 [ms]
[OGL LOG][lduLduBase.H:380] 
Statistics:
	Time per iteration: 4109 [mu s]
	Time per iteration and DOF: 0.064203 [ns]
	Retrieve results bandwith 1.993000 [GByte/s]
nonecudaGKOCG:  Solving for p, Initial residual = 0.0348616, Final residual = 8.26482e-05, No Iterations 2951
linear solve p 12977891
time step continuity errors : sum local = 1.45022e-10, global = -1.21909e-22, cumulative = -1.58549e-22
ExecutionTime = 1819.15 s  ClockTime = 1823 s

Time = 0.00025

Courant Number mean: 0.00375674 max: 0.0948201
DILUPBiCGStab:  Solving for Ux, Initial residual = 0.0158188, Final residual = 1.15626e-05, No Iterations 5
DILUPBiCGStab:  Solving for Uy, Initial residual = 0.0265871, Final residual = 4.05301e-06, No Iterations 5
DILUPBiCGStab:  Solving for Uz, Initial residual = 0.0464649, Final residual = 2.35129e-05, No Iterations 5
linear solve U 22237703
[OGL LOG][Proc: 0]global_index_init: 0.01 [ms]
[OGL LOG][Proc: 0]global_index_init: 0 [ms]
[OGL LOG][Proc: 0]update_host_matrix_data: 432.219 [ms]
[OGL LOG][Proc: 0]gather_global_matrix: 0 [ms]
[OGL LOG][Proc: 0]generate_distributed_matrix: 230.788 [ms]
[OGL LOG][Proc: 0]init_precond: 0.04 [ms]
[OGL LOG][Proc: 0]generate_solver: 0.002 [ms]
[OGL LOG][Proc: 0]solve: 12143.6 [ms]
[OGL LOG][Proc: 0]copy_x_back: 63.369 [ms]
[OGL LOG][lduLduBase.H:380] 
Statistics:
	Time per iteration: 4115 [mu s]
	Time per iteration and DOF: 0.064297 [ns]
	Retrieve results bandwith 2.019000 [GByte/s]
nonecudaGKOCG:  Solving for p, Initial residual = 0.0293886, Final residual = 7.50814e-05, No Iterations 2951
linear solve p 13027284
time step continuity errors : sum local = 1.3115e-10, global = 6.19559e-23, cumulative = -9.65935e-23
[OGL LOG][Proc: 0]global_index_init: 0.007 [ms]
[OGL LOG][Proc: 0]global_index_init: 0.001 [ms]
[OGL LOG][Proc: 0]update_host_matrix_data: 435.488 [ms]
[OGL LOG][Proc: 0]gather_global_matrix: 0 [ms]
[OGL LOG][Proc: 0]generate_distributed_matrix: 214.591 [ms]
[OGL LOG][Proc: 0]init_precond: 0.041 [ms]
[OGL LOG][Proc: 0]generate_solver: 0.002 [ms]
[OGL LOG][Proc: 0]solve: 12150.4 [ms]
[OGL LOG][Proc: 0]copy_x_back: 62.486 [ms]
[OGL LOG][lduLduBase.H:380] 
Statistics:
	Time per iteration: 4117 [mu s]
	Time per iteration and DOF: 0.064328 [ns]
	Retrieve results bandwith 2.048000 [GByte/s]
nonecudaGKOCG:  Solving for p, Initial residual = 0.0259123, Final residual = 6.4759e-05, No Iterations 2951
linear solve p 12994622
time step continuity errors : sum local = 1.1322e-10, global = -1.52822e-23, cumulative = -1.11876e-22
ExecutionTime = 1883.08 s  ClockTime = 1887 s

Time = 0.000275

Courant Number mean: 0.00394124 max: 0.0950931
DILUPBiCGStab:  Solving for Ux, Initial residual = 0.014366, Final residual = 9.41911e-06, No Iterations 5
DILUPBiCGStab:  Solving for Uy, Initial residual = 0.0238196, Final residual = 3.84466e-06, No Iterations 5
DILUPBiCGStab:  Solving for Uz, Initial residual = 0.0422406, Final residual = 1.84914e-05, No Iterations 5
linear solve U 22269114
[OGL LOG][Proc: 0]global_index_init: 0.008 [ms]
[OGL LOG][Proc: 0]global_index_init: 0.001 [ms]
[OGL LOG][Proc: 0]update_host_matrix_data: 432.005 [ms]
[OGL LOG][Proc: 0]gather_global_matrix: 0 [ms]
[OGL LOG][Proc: 0]generate_distributed_matrix: 223.332 [ms]
[OGL LOG][Proc: 0]init_precond: 0.03 [ms]
[OGL LOG][Proc: 0]generate_solver: 0.001 [ms]
[OGL LOG][Proc: 0]solve: 12146.1 [ms]
[OGL LOG][Proc: 0]copy_x_back: 62.572 [ms]
[OGL LOG][lduLduBase.H:380] 
Statistics:
	Time per iteration: 4115 [mu s]
	Time per iteration and DOF: 0.064297 [ns]
	Retrieve results bandwith 2.045000 [GByte/s]
nonecudaGKOCG:  Solving for p, Initial residual = 0.0234512, Final residual = 7.43527e-05, No Iterations 2951
linear solve p 12999340
time step continuity errors : sum local = 1.29643e-10, global = 2.5826e-23, cumulative = -8.60497e-23
[OGL LOG][Proc: 0]global_index_init: 0.013 [ms]
[OGL LOG][Proc: 0]global_index_init: 0.001 [ms]
[OGL LOG][Proc: 0]update_host_matrix_data: 435.824 [ms]
[OGL LOG][Proc: 0]gather_global_matrix: 0 [ms]
[OGL LOG][Proc: 0]generate_distributed_matrix: 196.71 [ms]
[OGL LOG][Proc: 0]init_precond: 0.038 [ms]
[OGL LOG][Proc: 0]generate_solver: 0.002 [ms]
[OGL LOG][Proc: 0]solve: 12127.8 [ms]
[OGL LOG][Proc: 0]copy_x_back: 63.814 [ms]
[OGL LOG][lduLduBase.H:380] 
Statistics:
	Time per iteration: 4109 [mu s]
	Time per iteration and DOF: 0.064203 [ns]
	Retrieve results bandwith 2.005000 [GByte/s]
nonecudaGKOCG:  Solving for p, Initial residual = 0.0210037, Final residual = 6.76068e-05, No Iterations 2951
linear solve p 12964984
time step continuity errors : sum local = 1.1793e-10, global = -1.18369e-23, cumulative = -9.78866e-23
ExecutionTime = 1947 s  ClockTime = 1951 s

Time = 0.0003

Courant Number mean: 0.00411426 max: 0.095325
DILUPBiCGStab:  Solving for Ux, Initial residual = 0.0131653, Final residual = 7.83664e-06, No Iterations 5
DILUPBiCGStab:  Solving for Uy, Initial residual = 0.0215632, Final residual = 2.91958e-06, No Iterations 5
DILUPBiCGStab:  Solving for Uz, Initial residual = 0.0387919, Final residual = 1.48084e-05, No Iterations 5
linear solve U 22207175
[OGL LOG][Proc: 0]global_index_init: 0.009 [ms]
[OGL LOG][Proc: 0]global_index_init: 0.001 [ms]
[OGL LOG][Proc: 0]update_host_matrix_data: 433.91 [ms]
[OGL LOG][Proc: 0]gather_global_matrix: 0 [ms]
[OGL LOG][Proc: 0]generate_distributed_matrix: 220.03 [ms]
[OGL LOG][Proc: 0]init_precond: 0.031 [ms]
[OGL LOG][Proc: 0]generate_solver: 0.001 [ms]
[OGL LOG][Proc: 0]solve: 12133.9 [ms]
[OGL LOG][Proc: 0]copy_x_back: 63.458 [ms]
[OGL LOG][lduLduBase.H:380] 
Statistics:
	Time per iteration: 4111 [mu s]
	Time per iteration and DOF: 0.064234 [ns]
	Retrieve results bandwith 2.017000 [GByte/s]
nonecudaGKOCG:  Solving for p, Initial residual = 0.0184775, Final residual = 5.49929e-05, No Iterations 2951
linear solve p 13009062
time step continuity errors : sum local = 9.583e-11, global = 6.4676e-24, cumulative = -9.1419e-23
[OGL LOG][Proc: 0]global_index_init: 0.008 [ms]
[OGL LOG][Proc: 0]global_index_init: 0 [ms]
[OGL LOG][Proc: 0]update_host_matrix_data: 434.772 [ms]
[OGL LOG][Proc: 0]gather_global_matrix: 0 [ms]
[OGL LOG][Proc: 0]generate_distributed_matrix: 216.979 [ms]
[OGL LOG][Proc: 0]init_precond: 0.031 [ms]
[OGL LOG][Proc: 0]generate_solver: 0.001 [ms]
[OGL LOG][Proc: 0]solve: 12144.4 [ms]
[OGL LOG][Proc: 0]copy_x_back: 62.473 [ms]
[OGL LOG][lduLduBase.H:380] 
Statistics:
	Time per iteration: 4115 [mu s]
	Time per iteration and DOF: 0.064297 [ns]
	Retrieve results bandwith 2.048000 [GByte/s]
nonecudaGKOCG:  Solving for p, Initial residual = 0.0169599, Final residual = 4.96711e-05, No Iterations 2951
linear solve p 12990030
time step continuity errors : sum local = 8.66118e-11, global = 5.91143e-23, cumulative = -3.23047e-23
ExecutionTime = 2010.97 s  ClockTime = 2016 s

Time = 0.000325

Courant Number mean: 0.0042775 max: 0.0955252
DILUPBiCGStab:  Solving for Ux, Initial residual = 0.012153, Final residual = 6.56252e-06, No Iterations 5
DILUPBiCGStab:  Solving for Uy, Initial residual = 0.019696, Final residual = 2.68293e-06, No Iterations 5
DILUPBiCGStab:  Solving for Uz, Initial residual = 0.0360102, Final residual = 1.2172e-05, No Iterations 5
linear solve U 22225652
[OGL LOG][Proc: 0]global_index_init: 0.007 [ms]
[OGL LOG][Proc: 0]global_index_init: 0.001 [ms]
[OGL LOG][Proc: 0]update_host_matrix_data: 432.997 [ms]
[OGL LOG][Proc: 0]gather_global_matrix: 0 [ms]
[OGL LOG][Proc: 0]generate_distributed_matrix: 222.419 [ms]
[OGL LOG][Proc: 0]init_precond: 0.029 [ms]
[OGL LOG][Proc: 0]generate_solver: 0.002 [ms]
[OGL LOG][Proc: 0]solve: 12150.5 [ms]
[OGL LOG][Proc: 0]copy_x_back: 62.251 [ms]
[OGL LOG][lduLduBase.H:380] 
Statistics:
	Time per iteration: 4117 [mu s]
	Time per iteration and DOF: 0.064328 [ns]
	Retrieve results bandwith 2.056000 [GByte/s]
nonecudaGKOCG:  Solving for p, Initial residual = 0.015941, Final residual = 5.9556e-05, No Iterations 2951
linear solve p 13000948
time step continuity errors : sum local = 1.0371e-10, global = -8.4813e-23, cumulative = -1.17118e-22
[OGL LOG][Proc: 0]global_index_init: 0.018 [ms]
[OGL LOG][Proc: 0]global_index_init: 0 [ms]
[OGL LOG][Proc: 0]update_host_matrix_data: 434.066 [ms]
[OGL LOG][Proc: 0]gather_global_matrix: 0 [ms]
[OGL LOG][Proc: 0]generate_distributed_matrix: 200 [ms]
[OGL LOG][Proc: 0]init_precond: 0.031 [ms]
[OGL LOG][Proc: 0]generate_solver: 0.001 [ms]
[OGL LOG][Proc: 0]solve: 12122.8 [ms]
[OGL LOG][Proc: 0]copy_x_back: 64.088 [ms]
[OGL LOG][lduLduBase.H:380] 
Statistics:
	Time per iteration: 4108 [mu s]
	Time per iteration and DOF: 0.064187 [ns]
	Retrieve results bandwith 1.997000 [GByte/s]
nonecudaGKOCG:  Solving for p, Initial residual = 0.0147292, Final residual = 5.21506e-05, No Iterations 2951
linear solve p 12977535
time step continuity errors : sum local = 9.08516e-11, global = 1.85449e-23, cumulative = -9.85728e-23
ExecutionTime = 2074.88 s  ClockTime = 2080 s

Time = 0.00035

Courant Number mean: 0.00443218 max: 0.0957004
DILUPBiCGStab:  Solving for Ux, Initial residual = 0.0112886, Final residual = 5.56407e-06, No Iterations 5
DILUPBiCGStab:  Solving for Uy, Initial residual = 0.0181199, Final residual = 2.27495e-06, No Iterations 5
DILUPBiCGStab:  Solving for Uz, Initial residual = 0.0333341, Final residual = 9.95726e-06, No Iterations 5
linear solve U 22182113
[OGL LOG][Proc: 0]global_index_init: 0.009 [ms]
[OGL LOG][Proc: 0]global_index_init: 0.001 [ms]
[OGL LOG][Proc: 0]update_host_matrix_data: 433.604 [ms]
[OGL LOG][Proc: 0]gather_global_matrix: 0 [ms]
[OGL LOG][Proc: 0]generate_distributed_matrix: 221.671 [ms]
[OGL LOG][Proc: 0]init_precond: 0.029 [ms]
[OGL LOG][Proc: 0]generate_solver: 0.001 [ms]
[OGL LOG][Proc: 0]solve: 12134.9 [ms]
[OGL LOG][Proc: 0]copy_x_back: 64.98 [ms]
[OGL LOG][lduLduBase.H:380] 
Statistics:
	Time per iteration: 4112 [mu s]
	Time per iteration and DOF: 0.064250 [ns]
	Retrieve results bandwith 1.969000 [GByte/s]
nonecudaGKOCG:  Solving for p, Initial residual = 0.0136751, Final residual = 4.93095e-05, No Iterations 2951
linear solve p 13012449
time step continuity errors : sum local = 8.59106e-11, global = -1.29281e-22, cumulative = -2.27853e-22
[OGL LOG][Proc: 0]global_index_init: 0.007 [ms]
[OGL LOG][Proc: 0]global_index_init: 0.001 [ms]
[OGL LOG][Proc: 0]update_host_matrix_data: 435.245 [ms]
[OGL LOG][Proc: 0]gather_global_matrix: 0 [ms]
[OGL LOG][Proc: 0]generate_distributed_matrix: 219.904 [ms]
[OGL LOG][Proc: 0]init_precond: 0.03 [ms]
[OGL LOG][Proc: 0]generate_solver: 0.001 [ms]
[OGL LOG][Proc: 0]solve: 12145.8 [ms]
[OGL LOG][Proc: 0]copy_x_back: 61.888 [ms]
[OGL LOG][lduLduBase.H:380] 
Statistics:
	Time per iteration: 4115 [mu s]
	Time per iteration and DOF: 0.064297 [ns]
	Retrieve results bandwith 2.068000 [GByte/s]
nonecudaGKOCG:  Solving for p, Initial residual = 0.0128041, Final residual = 4.31267e-05, No Iterations 2951
linear solve p 12976788
time step continuity errors : sum local = 7.51755e-11, global = 1.2505e-22, cumulative = -1.02803e-22
ExecutionTime = 2138.81 s  ClockTime = 2144 s

Time = 0.000375

Courant Number mean: 0.00457926 max: 0.0958552
DILUPBiCGStab:  Solving for Ux, Initial residual = 0.0105404, Final residual = 4.76081e-06, No Iterations 5
DILUPBiCGStab:  Solving for Uy, Initial residual = 0.0167753, Final residual = 2.07676e-06, No Iterations 5
DILUPBiCGStab:  Solving for Uz, Initial residual = 0.0310971, Final residual = 8.53314e-06, No Iterations 5
linear solve U 22273671
[OGL LOG][Proc: 0]global_index_init: 0.007 [ms]
[OGL LOG][Proc: 0]global_index_init: 0.001 [ms]
[OGL LOG][Proc: 0]update_host_matrix_data: 434.096 [ms]
[OGL LOG][Proc: 0]gather_global_matrix: 0 [ms]
[OGL LOG][Proc: 0]generate_distributed_matrix: 221.58 [ms]
[OGL LOG][Proc: 0]init_precond: 0.032 [ms]
[OGL LOG][Proc: 0]generate_solver: 0.001 [ms]
[OGL LOG][Proc: 0]solve: 12148.6 [ms]
[OGL LOG][Proc: 0]copy_x_back: 62.776 [ms]
[OGL LOG][lduLduBase.H:380] 
Statistics:
	Time per iteration: 4116 [mu s]
	Time per iteration and DOF: 0.064312 [ns]
	Retrieve results bandwith 2.038000 [GByte/s]
nonecudaGKOCG:  Solving for p, Initial residual = 0.0121003, Final residual = 4.15013e-05, No Iterations 2951
linear solve p 12999651
time step continuity errors : sum local = 7.22972e-11, global = 8.6235e-23, cumulative = -1.65684e-23
[OGL LOG][Proc: 0]global_index_init: 0.009 [ms]
[OGL LOG][Proc: 0]global_index_init: 0.002 [ms]
[OGL LOG][Proc: 0]update_host_matrix_data: 435.173 [ms]
[OGL LOG][Proc: 0]gather_global_matrix: 0 [ms]
[OGL LOG][Proc: 0]generate_distributed_matrix: 199.15 [ms]
[OGL LOG][Proc: 0]init_precond: 0.029 [ms]
[OGL LOG][Proc: 0]generate_solver: 0.001 [ms]
[OGL LOG][Proc: 0]solve: 12123.2 [ms]
[OGL LOG][Proc: 0]copy_x_back: 64.158 [ms]
[OGL LOG][lduLduBase.H:380] 
Statistics:
	Time per iteration: 4108 [mu s]
	Time per iteration and DOF: 0.064187 [ns]
	Retrieve results bandwith 1.995000 [GByte/s]
nonecudaGKOCG:  Solving for p, Initial residual = 0.0113802, Final residual = 3.634e-05, No Iterations 2951
linear solve p 12977550
time step continuity errors : sum local = 6.33292e-11, global = -9.18597e-24, cumulative = -2.57544e-23
ExecutionTime = 2202.75 s  ClockTime = 2208 s

Time = 0.0004

Courant Number mean: 0.00471974 max: 0.0959935
DILUPBiCGStab:  Solving for Ux, Initial residual = 0.00988661, Final residual = 4.11437e-06, No Iterations 5
DILUPBiCGStab:  Solving for Uy, Initial residual = 0.0156124, Final residual = 1.848e-06, No Iterations 5
DILUPBiCGStab:  Solving for Uz, Initial residual = 0.0291947, Final residual = 7.19805e-06, No Iterations 5
linear solve U 22218618
[OGL LOG][Proc: 0]global_index_init: 0.008 [ms]
[OGL LOG][Proc: 0]global_index_init: 0.001 [ms]
[OGL LOG][Proc: 0]update_host_matrix_data: 433.818 [ms]
[OGL LOG][Proc: 0]gather_global_matrix: 0 [ms]
[OGL LOG][Proc: 0]generate_distributed_matrix: 219.818 [ms]
[OGL LOG][Proc: 0]init_precond: 0.04 [ms]
[OGL LOG][Proc: 0]generate_solver: 0.002 [ms]
[OGL LOG][Proc: 0]solve: 12131.6 [ms]
[OGL LOG][Proc: 0]copy_x_back: 63.666 [ms]
[OGL LOG][lduLduBase.H:380] 
Statistics:
	Time per iteration: 4111 [mu s]
	Time per iteration and DOF: 0.064234 [ns]
	Retrieve results bandwith 2.010000 [GByte/s]
nonecudaGKOCG:  Solving for p, Initial residual = 0.0108375, Final residual = 3.81645e-05, No Iterations 2951
linear solve p 13005473
time step continuity errors : sum local = 6.65194e-11, global = -1.12168e-22, cumulative = -1.37923e-22
[OGL LOG][Proc: 0]global_index_init: 0.007 [ms]
[OGL LOG][Proc: 0]global_index_init: 0.001 [ms]
[OGL LOG][Proc: 0]update_host_matrix_data: 433.662 [ms]
[OGL LOG][Proc: 0]gather_global_matrix: 0 [ms]
[OGL LOG][Proc: 0]generate_distributed_matrix: 218.032 [ms]
[OGL LOG][Proc: 0]init_precond: 0.029 [ms]
[OGL LOG][Proc: 0]generate_solver: 0.001 [ms]
[OGL LOG][Proc: 0]solve: 12147 [ms]
[OGL LOG][Proc: 0]copy_x_back: 62.055 [ms]
[OGL LOG][lduLduBase.H:380] 
Statistics:
	Time per iteration: 4116 [mu s]
	Time per iteration and DOF: 0.064312 [ns]
	Retrieve results bandwith 2.062000 [GByte/s]
nonecudaGKOCG:  Solving for p, Initial residual = 0.0102578, Final residual = 3.21568e-05, No Iterations 2951
linear solve p 12976002
time step continuity errors : sum local = 5.60705e-11, global = -3.00447e-23, cumulative = -1.67968e-22
ExecutionTime = 2266.64 s  ClockTime = 2272 s

Time = 0.000425

Courant Number mean: 0.00485411 max: 0.0961178
DILUPBiCGStab:  Solving for Ux, Initial residual = 0.00930958, Final residual = 3.58996e-06, No Iterations 5
DILUPBiCGStab:  Solving for Uy, Initial residual = 0.0145981, Final residual = 1.69199e-06, No Iterations 5
DILUPBiCGStab:  Solving for Uz, Initial residual = 0.0274569, Final residual = 6.29599e-06, No Iterations 5
linear solve U 22217665
[OGL LOG][Proc: 0]global_index_init: 0.006 [ms]
[OGL LOG][Proc: 0]global_index_init: 0.001 [ms]
[OGL LOG][Proc: 0]update_host_matrix_data: 432.03 [ms]
[OGL LOG][Proc: 0]gather_global_matrix: 0 [ms]
[OGL LOG][Proc: 0]generate_distributed_matrix: 222.26 [ms]
[OGL LOG][Proc: 0]init_precond: 0.029 [ms]
[OGL LOG][Proc: 0]generate_solver: 0.001 [ms]
[OGL LOG][Proc: 0]solve: 12153 [ms]
[OGL LOG][Proc: 0]copy_x_back: 62.981 [ms]
[OGL LOG][lduLduBase.H:380] 
Statistics:
	Time per iteration: 4118 [mu s]
	Time per iteration and DOF: 0.064344 [ns]
	Retrieve results bandwith 2.032000 [GByte/s]
nonecudaGKOCG:  Solving for p, Initial residual = 0.00982576, Final residual = 3.57951e-05, No Iterations 2951
linear solve p 13005092
time step continuity errors : sum local = 6.24022e-11, global = 6.45321e-23, cumulative = -1.03435e-22
[OGL LOG][Proc: 0]global_index_init: 0.012 [ms]
[OGL LOG][Proc: 0]global_index_init: 0.001 [ms]
[OGL LOG][Proc: 0]update_host_matrix_data: 434.662 [ms]
[OGL LOG][Proc: 0]gather_global_matrix: 0 [ms]
[OGL LOG][Proc: 0]generate_distributed_matrix: 212.878 [ms]
[OGL LOG][Proc: 0]init_precond: 0.03 [ms]
[OGL LOG][Proc: 0]generate_solver: 0.001 [ms]
[OGL LOG][Proc: 0]solve: 11674.3 [ms]
[OGL LOG][Proc: 0]copy_x_back: 63.717 [ms]
[OGL LOG][lduLduBase.H:380] 
Statistics:
	Time per iteration: 4120 [mu s]
	Time per iteration and DOF: 0.064375 [ns]
	Retrieve results bandwith 2.008000 [GByte/s]
nonecudaGKOCG:  Solving for p, Initial residual = 0.00933181, Final residual = 9.80251e-05, No Iterations 2833
linear solve p 12541362
time step continuity errors : sum local = 1.70952e-10, global = 7.15952e-23, cumulative = -3.18403e-23
ExecutionTime = 2330.09 s  ClockTime = 2336 s

Time = 0.00045

Courant Number mean: 0.00498313 max: 0.0962305
DILUPBiCGStab:  Solving for Ux, Initial residual = 0.00879668, Final residual = 3.16191e-06, No Iterations 5
DILUPBiCGStab:  Solving for Uy, Initial residual = 0.0137048, Final residual = 1.53831e-06, No Iterations 5
DILUPBiCGStab:  Solving for Uz, Initial residual = 0.0258762, Final residual = 5.50579e-06, No Iterations 5
linear solve U 22257150
[OGL LOG][Proc: 0]global_index_init: 0.007 [ms]
[OGL LOG][Proc: 0]global_index_init: 0.001 [ms]
[OGL LOG][Proc: 0]update_host_matrix_data: 431.69 [ms]
[OGL LOG][Proc: 0]gather_global_matrix: 0 [ms]
[OGL LOG][Proc: 0]generate_distributed_matrix: 221.785 [ms]
[OGL LOG][Proc: 0]init_precond: 0.03 [ms]
[OGL LOG][Proc: 0]generate_solver: 0.001 [ms]
[OGL LOG][Proc: 0]solve: 11648.8 [ms]
[OGL LOG][Proc: 0]copy_x_back: 63.386 [ms]
[OGL LOG][lduLduBase.H:380] 
Statistics:
	Time per iteration: 4122 [mu s]
	Time per iteration and DOF: 0.064406 [ns]
	Retrieve results bandwith 2.019000 [GByte/s]
nonecudaGKOCG:  Solving for p, Initial residual = 0.00920882, Final residual = 8.20377e-05, No Iterations 2826
linear solve p 12524377
time step continuity errors : sum local = 1.4312e-10, global = 7.65475e-25, cumulative = -3.10748e-23
[OGL LOG][Proc: 0]global_index_init: 0.006 [ms]
[OGL LOG][Proc: 0]global_index_init: 0.001 [ms]
[OGL LOG][Proc: 0]update_host_matrix_data: 434.383 [ms]
[OGL LOG][Proc: 0]gather_global_matrix: 0 [ms]
[OGL LOG][Proc: 0]generate_distributed_matrix: 217.476 [ms]
[OGL LOG][Proc: 0]init_precond: 0.028 [ms]
[OGL LOG][Proc: 0]generate_solver: 0.001 [ms]
[OGL LOG][Proc: 0]solve: 9495.42 [ms]
[OGL LOG][Proc: 0]copy_x_back: 61.41 [ms]
[OGL LOG][lduLduBase.H:380] 
Statistics:
	Time per iteration: 4199 [mu s]
	Time per iteration and DOF: 0.065609 [ns]
	Retrieve results bandwith 2.084000 [GByte/s]
nonecudaGKOCG:  Solving for p, Initial residual = 0.00875407, Final residual = 7.29959e-05, No Iterations 2261
linear solve p 10327039
time step continuity errors : sum local = 1.28242e-10, global = -2.15739e-23, cumulative = -5.26487e-23
ExecutionTime = 2390.85 s  ClockTime = 2397 s

Time = 0.000475

Courant Number mean: 0.00510714 max: 0.0963332
DILUPBiCGStab:  Solving for Ux, Initial residual = 0.0083371, Final residual = 2.80965e-06, No Iterations 5
DILUPBiCGStab:  Solving for Uy, Initial residual = 0.0129136, Final residual = 1.41373e-06, No Iterations 5
DILUPBiCGStab:  Solving for Uz, Initial residual = 0.0245427, Final residual = 5.01862e-06, No Iterations 5
linear solve U 22221250
[OGL LOG][Proc: 0]global_index_init: 0.008 [ms]
[OGL LOG][Proc: 0]global_index_init: 0.001 [ms]
[OGL LOG][Proc: 0]update_host_matrix_data: 432.302 [ms]
[OGL LOG][Proc: 0]gather_global_matrix: 0 [ms]
[OGL LOG][Proc: 0]generate_distributed_matrix: 222.555 [ms]
[OGL LOG][Proc: 0]init_precond: 0.028 [ms]
[OGL LOG][Proc: 0]generate_solver: 0.001 [ms]
[OGL LOG][Proc: 0]solve: 8070.01 [ms]
[OGL LOG][Proc: 0]copy_x_back: 62.956 [ms]
[OGL LOG][lduLduBase.H:380] 
Statistics:
	Time per iteration: 4267 [mu s]
	Time per iteration and DOF: 0.066672 [ns]
	Retrieve results bandwith 2.033000 [GByte/s]
nonecudaGKOCG:  Solving for p, Initial residual = 0.00859673, Final residual = 2.90106e-05, No Iterations 1891
linear solve p 8921540
time step continuity errors : sum local = 5.22115e-11, global = -3.32817e-23, cumulative = -8.59304e-23
[OGL LOG][Proc: 0]global_index_init: 0.015 [ms]
[OGL LOG][Proc: 0]global_index_init: 0.001 [ms]
[OGL LOG][Proc: 0]update_host_matrix_data: 435.836 [ms]
[OGL LOG][Proc: 0]gather_global_matrix: 0 [ms]
[OGL LOG][Proc: 0]generate_distributed_matrix: 212.988 [ms]
[OGL LOG][Proc: 0]init_precond: 0.032 [ms]
[OGL LOG][Proc: 0]generate_solver: 0.002 [ms]
[OGL LOG][Proc: 0]solve: 6835.92 [ms]
[OGL LOG][Proc: 0]copy_x_back: 63.666 [ms]
[OGL LOG][lduLduBase.H:380] 
Statistics:
	Time per iteration: 4337 [mu s]
	Time per iteration and DOF: 0.067766 [ns]
	Retrieve results bandwith 2.010000 [GByte/s]
nonecudaGKOCG:  Solving for p, Initial residual = 0.00816431, Final residual = 1.4672e-05, No Iterations 1576
linear solve p 7681970
time step continuity errors : sum local = 2.69413e-11, global = -4.99778e-23, cumulative = -1.35908e-22
ExecutionTime = 2445.33 s  ClockTime = 2451 s

Time = 0.0005

Courant Number mean: 0.00522673 max: 0.0964273
DILUPBiCGStab:  Solving for Ux, Initial residual = 0.00792401, Final residual = 2.51626e-06, No Iterations 5
DILUPBiCGStab:  Solving for Uy, Initial residual = 0.0122053, Final residual = 1.29884e-06, No Iterations 5
DILUPBiCGStab:  Solving for Uz, Initial residual = 0.0234626, Final residual = 4.35488e-06, No Iterations 5
linear solve U 22280226
[OGL LOG][Proc: 0]global_index_init: 0.007 [ms]
[OGL LOG][Proc: 0]global_index_init: 0.001 [ms]
[OGL LOG][Proc: 0]update_host_matrix_data: 433.034 [ms]
[OGL LOG][Proc: 0]gather_global_matrix: 0 [ms]
[OGL LOG][Proc: 0]generate_distributed_matrix: 198.741 [ms]
[OGL LOG][Proc: 0]init_precond: 0.032 [ms]
[OGL LOG][Proc: 0]generate_solver: 0.001 [ms]
[OGL LOG][Proc: 0]solve: 5631.61 [ms]
[OGL LOG][Proc: 0]copy_x_back: 64.077 [ms]
[OGL LOG][lduLduBase.H:380] 
Statistics:
	Time per iteration: 4465 [mu s]
	Time per iteration and DOF: 0.069766 [ns]
	Retrieve results bandwith 1.997000 [GByte/s]
nonecudaGKOCG:  Solving for p, Initial residual = 0.00775255, Final residual = 2.65074e-05, No Iterations 1261
linear solve p 6479568
time step continuity errors : sum local = 4.65246e-11, global = 8.0354e-23, cumulative = -5.55541e-23
[OGL LOG][Proc: 0]global_index_init: 0.009 [ms]
[OGL LOG][Proc: 0]global_index_init: 0.001 [ms]
[OGL LOG][Proc: 0]update_host_matrix_data: 435.682 [ms]
[OGL LOG][Proc: 0]gather_global_matrix: 0 [ms]
[OGL LOG][Proc: 0]generate_distributed_matrix: 212.751 [ms]
[OGL LOG][Proc: 0]init_precond: 0.033 [ms]
[OGL LOG][Proc: 0]generate_solver: 0.001 [ms]
[OGL LOG][Proc: 0]solve: 5196.49 [ms]
[OGL LOG][Proc: 0]copy_x_back: 63.702 [ms]
[OGL LOG][lduLduBase.H:380] 
Statistics:
	Time per iteration: 4514 [mu s]
	Time per iteration and DOF: 0.070531 [ns]
	Retrieve results bandwith 2.009000 [GByte/s]
nonecudaGKOCG:  Solving for p, Initial residual = 0.00737617, Final residual = 8.70545e-05, No Iterations 1151
linear solve p 6024095
time step continuity errors : sum local = 1.52734e-10, global = 4.59471e-23, cumulative = -9.60699e-24
ExecutionTime = 2495.8 s  ClockTime = 2502 s

End

Finalising parallel run
================================================================================
hash: 3487df892b65d771e01117913fec5253
/*---------------------------------------------------------------------------*\
| =========                 |                                                 |
| \\      /  F ield         | OpenFOAM: The Open Source CFD Toolbox           |
|  \\    /   O peration     | Version:  2112                                  |
|   \\  /    A nd           | Website:  www.openfoam.com                      |
|    \\/     M anipulation  |                                                 |
\*---------------------------------------------------------------------------*/
Build  : d44c8318f0-20220111 OPENFOAM=2112 version=v2112
Arch   : "LSB;label=32;scalar=64"
Exec   : icoFoam -parallel
Date   : Aug 05 2022
Time   : 13:49:49
Host   : hkn0032.localdomain
PID    : 1842781
I/O    : uncollated
Case   : /hkfs/work/workspace/scratch/eq4036-lidDrivenCavity/single_node/mesh/400/matrix_solver/CG_NoPrecond_OpenFOAM_Default/mpiRank_of/76/base
nProcs : 76
Hosts  :
(
    (hkn0032.localdomain 76)
)
Pstream initialized with:
    floatTransfer      : 0
    nProcsSimpleSum    : 0
    commsType          : nonBlocking
    polling iterations : 0
trapFpe: Floating point exception trapping enabled (FOAM_SIGFPE).
fileModificationChecking : Monitoring run-time modified files using timeStampMaster (fileModificationSkew 5, maxFileModificationPolls 20)
allowSystemOperations : Allowing user-supplied system call operations

// * * * * * * * * * * * * * * * * * * * * * * * * * * * * * * * * * * * * * //
Create time

--> FOAM Warning : 
    From void* Foam::dlLibraryTable::openLibrary(const Foam::fileName&, bool)
    in file db/dynamicLibrary/dlLibraryTable/dlLibraryTable.C at line 188
    Could not load "libpetscFoam.so"
libcuda.so.1: cannot open shared object file: No such file or directory
Create mesh for time = 0


PISO: Operating solver in PISO mode

Reading transportProperties

Reading field p

Reading field U

Reading/calculating face flux field phi


Starting time loop

Time = 2.5e-05

Courant Number mean: 0 max: 0
DILUPBiCGStab:  Solving for Ux, Initial residual = 1, Final residual = 0.00226094, No Iterations 5
DILUPBiCGStab:  Solving for Uy:  solution singularity
DILUPBiCGStab:  Solving for Uz:  solution singularity
linear solve U 1603155
nonePCG:  Solving for p, Initial residual = 1, Final residual = 9.74899e-05, No Iterations 3254
linear solve p 183007859
time step continuity errors : sum local = 2.54754e-10, global = 1.66716e-22, cumulative = 1.66716e-22
nonePCG:  Solving for p, Initial residual = 0.72181, Final residual = 9.92666e-05, No Iterations 3235
linear solve p 181543479
time step continuity errors : sum local = 3.44772e-10, global = -6.23529e-23, cumulative = 1.04363e-22
ExecutionTime = 371.49 s  ClockTime = 375 s

Time = 5e-05

Courant Number mean: 0.00116486 max: 0.075116
DILUPBiCGStab:  Solving for Ux, Initial residual = 0.159907, Final residual = 0.00140116, No Iterations 5
DILUPBiCGStab:  Solving for Uy, Initial residual = 0.34922, Final residual = 0.00106566, No Iterations 5
DILUPBiCGStab:  Solving for Uz, Initial residual = 0.994675, Final residual = 0.00528099, No Iterations 5
linear solve U 3257882
nonePCG:  Solving for p, Initial residual = 0.690108, Final residual = 9.88225e-05, No Iterations 3177
linear solve p 179364068
time step continuity errors : sum local = 3.86879e-10, global = -2.1996e-23, cumulative = 8.23674e-23
nonePCG:  Solving for p, Initial residual = 0.606158, Final residual = 9.96042e-05, No Iterations 3150
linear solve p 177593332
time step continuity errors : sum local = 3.97948e-10, global = -6.70507e-23, cumulative = 1.53167e-23
ExecutionTime = 732.69 s  ClockTime = 738 s

Time = 7.5e-05

Courant Number mean: 0.00177783 max: 0.0870111
DILUPBiCGStab:  Solving for Ux, Initial residual = 0.0662549, Final residual = 0.000402748, No Iterations 5
DILUPBiCGStab:  Solving for Uy, Initial residual = 0.138391, Final residual = 0.000289608, No Iterations 5
DILUPBiCGStab:  Solving for Uz, Initial residual = 0.427617, Final residual = 0.00259827, No Iterations 5
linear solve U 3261576
nonePCG:  Solving for p, Initial residual = 0.590372, Final residual = 9.89388e-05, No Iterations 3135
linear solve p 179618850
time step continuity errors : sum local = 2.71142e-10, global = -8.6749e-23, cumulative = -7.14324e-23
nonePCG:  Solving for p, Initial residual = 0.523476, Final residual = 9.95076e-05, No Iterations 3130
linear solve p 176419884
time step continuity errors : sum local = 2.6532e-10, global = 3.06712e-23, cumulative = -4.07611e-23
ExecutionTime = 1092.94 s  ClockTime = 1100 s

Time = 0.0001

Courant Number mean: 0.00220495 max: 0.0903076
DILUPBiCGStab:  Solving for Ux, Initial residual = 0.0437724, Final residual = 0.000186528, No Iterations 5
DILUPBiCGStab:  Solving for Uy, Initial residual = 0.0873209, Final residual = 0.000151658, No Iterations 5
DILUPBiCGStab:  Solving for Uz, Initial residual = 0.134309, Final residual = 0.000662162, No Iterations 5
linear solve U 3258444
nonePCG:  Solving for p, Initial residual = 0.368427, Final residual = 9.82059e-05, No Iterations 1481
linear solve p 84109925
time step continuity errors : sum local = 2.42221e-10, global = 4.51298e-23, cumulative = 4.36867e-24
nonePCG:  Solving for p, Initial residual = 0.305727, Final residual = 9.90175e-05, No Iterations 1464
linear solve p 82402406
time step continuity errors : sum local = 2.35284e-10, global = 2.74029e-23, cumulative = 3.17716e-23
ExecutionTime = 1264.56 s  ClockTime = 1272 s

Time = 0.000125

Courant Number mean: 0.00255066 max: 0.0918992
DILUPBiCGStab:  Solving for Ux, Initial residual = 0.0333194, Final residual = 0.000125899, No Iterations 5
DILUPBiCGStab:  Solving for Uy, Initial residual = 0.0630985, Final residual = 0.000105413, No Iterations 5
DILUPBiCGStab:  Solving for Uz, Initial residual = 0.0921203, Final residual = 0.000348069, No Iterations 5
linear solve U 3248808
nonePCG:  Solving for p, Initial residual = 0.249769, Final residual = 9.88838e-05, No Iterations 1435
linear solve p 82147465
time step continuity errors : sum local = 2.0002e-10, global = -6.51941e-23, cumulative = -3.34225e-23
nonePCG:  Solving for p, Initial residual = 0.208873, Final residual = 9.99634e-05, No Iterations 1432
linear solve p 80768890
time step continuity errors : sum local = 1.98529e-10, global = -6.44894e-23, cumulative = -9.79119e-23
ExecutionTime = 1432.56 s  ClockTime = 1441 s

Time = 0.00015

Courant Number mean: 0.00284586 max: 0.0928834
DILUPBiCGStab:  Solving for Ux, Initial residual = 0.0271008, Final residual = 8.76013e-05, No Iterations 5
DILUPBiCGStab:  Solving for Uy, Initial residual = 0.0495562, Final residual = 7.77211e-05, No Iterations 5
DILUPBiCGStab:  Solving for Uz, Initial residual = 0.080339, Final residual = 0.000272236, No Iterations 5
linear solve U 3246365
nonePCG:  Solving for p, Initial residual = 0.159726, Final residual = 9.99652e-05, No Iterations 1439
linear solve p 81243596
time step continuity errors : sum local = 2.06361e-10, global = 2.68103e-23, cumulative = -7.11015e-23
nonePCG:  Solving for p, Initial residual = 0.131924, Final residual = 9.96053e-05, No Iterations 1372
linear solve p 77965789
time step continuity errors : sum local = 1.96672e-10, global = 1.30246e-22, cumulative = 5.91445e-23
ExecutionTime = 1596.93 s  ClockTime = 1606 s

Time = 0.000175

Courant Number mean: 0.00310635 max: 0.0935707
DILUPBiCGStab:  Solving for Ux, Initial residual = 0.0229278, Final residual = 6.63972e-05, No Iterations 5
DILUPBiCGStab:  Solving for Uy, Initial residual = 0.0408156, Final residual = 6.10431e-05, No Iterations 5
DILUPBiCGStab:  Solving for Uz, Initial residual = 0.0680721, Final residual = 0.000200467, No Iterations 5
linear solve U 3247580
nonePCG:  Solving for p, Initial residual = 0.10623, Final residual = 9.84422e-05, No Iterations 1427
linear solve p 80927619
time step continuity errors : sum local = 1.86714e-10, global = 2.77358e-23, cumulative = 8.68803e-23
nonePCG:  Solving for p, Initial residual = 0.0878764, Final residual = 9.88938e-05, No Iterations 1379
linear solve p 77758103
time step continuity errors : sum local = 1.81397e-10, global = -8.38524e-23, cumulative = 3.02789e-24
ExecutionTime = 1760.75 s  ClockTime = 1771 s

Time = 0.0002

Courant Number mean: 0.00334091 max: 0.0940852
DILUPBiCGStab:  Solving for Ux, Initial residual = 0.0199312, Final residual = 5.29701e-05, No Iterations 5
DILUPBiCGStab:  Solving for Uy, Initial residual = 0.0346473, Final residual = 4.75929e-05, No Iterations 5
DILUPBiCGStab:  Solving for Uz, Initial residual = 0.0609019, Final residual = 0.000155552, No Iterations 5
linear solve U 3251426
nonePCG:  Solving for p, Initial residual = 0.0718711, Final residual = 9.9977e-05, No Iterations 1452
linear solve p 82070170
time step continuity errors : sum local = 1.97016e-10, global = -1.50847e-22, cumulative = -1.47819e-22
nonePCG:  Solving for p, Initial residual = 0.0609184, Final residual = 9.96928e-05, No Iterations 1366
linear solve p 77284650
time step continuity errors : sum local = 1.8616e-10, global = -3.01727e-23, cumulative = -1.77992e-22
ExecutionTime = 1925.23 s  ClockTime = 1936 s

Time = 0.000225

Courant Number mean: 0.0035553 max: 0.0944893
DILUPBiCGStab:  Solving for Ux, Initial residual = 0.0176396, Final residual = 4.37807e-05, No Iterations 5
DILUPBiCGStab:  Solving for Uy, Initial residual = 0.0301329, Final residual = 3.95718e-05, No Iterations 5
DILUPBiCGStab:  Solving for Uz, Initial residual = 0.0543104, Final residual = 0.000130925, No Iterations 5
linear solve U 3250792
nonePCG:  Solving for p, Initial residual = 0.0494019, Final residual = 9.98671e-05, No Iterations 1384
linear solve p 78962274
time step continuity errors : sum local = 1.87612e-10, global = 1.47774e-22, cumulative = -3.02177e-23
nonePCG:  Solving for p, Initial residual = 0.0420788, Final residual = 9.99497e-05, No Iterations 1367
linear solve p 77230202
time step continuity errors : sum local = 1.78402e-10, global = 7.14516e-23, cumulative = 4.12339e-23
ExecutionTime = 2086.59 s  ClockTime = 2098 s

Time = 0.00025

Courant Number mean: 0.00375342 max: 0.0948173
DILUPBiCGStab:  Solving for Ux, Initial residual = 0.0158515, Final residual = 3.73581e-05, No Iterations 5
DILUPBiCGStab:  Solving for Uy, Initial residual = 0.0266085, Final residual = 3.31324e-05, No Iterations 5
DILUPBiCGStab:  Solving for Uz, Initial residual = 0.0495148, Final residual = 0.000110946, No Iterations 5
linear solve U 3251710
nonePCG:  Solving for p, Initial residual = 0.0374104, Final residual = 9.86342e-05, No Iterations 2942
linear solve p 166102030
time step continuity errors : sum local = 1.73816e-10, global = -5.49199e-23, cumulative = -1.3686e-23
nonePCG:  Solving for p, Initial residual = 0.032908, Final residual = 9.87851e-05, No Iterations 2938
linear solve p 165125184
time step continuity errors : sum local = 1.74253e-10, global = -7.4764e-23, cumulative = -8.845e-23
ExecutionTime = 2422.18 s  ClockTime = 2435 s

Time = 0.000275

Courant Number mean: 0.00393797 max: 0.0950906
DILUPBiCGStab:  Solving for Ux, Initial residual = 0.0143911, Final residual = 3.2401e-05, No Iterations 5
DILUPBiCGStab:  Solving for Uy, Initial residual = 0.023845, Final residual = 2.84875e-05, No Iterations 5
DILUPBiCGStab:  Solving for Uz, Initial residual = 0.0427564, Final residual = 8.47666e-05, No Iterations 5
linear solve U 3253646
nonePCG:  Solving for p, Initial residual = 0.0272505, Final residual = 9.96522e-05, No Iterations 1224
linear solve p 69975398
time step continuity errors : sum local = 1.78129e-10, global = -8.29924e-23, cumulative = -1.71442e-22
nonePCG:  Solving for p, Initial residual = 0.0243608, Final residual = 9.9526e-05, No Iterations 1218
linear solve p 68726472
time step continuity errors : sum local = 1.75936e-10, global = -3.66924e-24, cumulative = -1.75112e-22
ExecutionTime = 2566.12 s  ClockTime = 2580 s

Time = 0.0003

Courant Number mean: 0.00411103 max: 0.0953227
DILUPBiCGStab:  Solving for Ux, Initial residual = 0.013188, Final residual = 2.8547e-05, No Iterations 5
DILUPBiCGStab:  Solving for Uy, Initial residual = 0.0215817, Final residual = 2.48134e-05, No Iterations 5
DILUPBiCGStab:  Solving for Uz, Initial residual = 0.0398349, Final residual = 7.49223e-05, No Iterations 5
linear solve U 3252884
nonePCG:  Solving for p, Initial residual = 0.0229092, Final residual = 9.95791e-05, No Iterations 1226
linear solve p 69232773
time step continuity errors : sum local = 1.79463e-10, global = -8.67619e-23, cumulative = -2.61874e-22
nonePCG:  Solving for p, Initial residual = 0.0210597, Final residual = 9.95192e-05, No Iterations 1216
linear solve p 68573152
time step continuity errors : sum local = 1.75436e-10, global = 1.1335e-23, cumulative = -2.50539e-22
ExecutionTime = 2709.18 s  ClockTime = 2723 s

Time = 0.000325

Courant Number mean: 0.00427435 max: 0.0955232
DILUPBiCGStab:  Solving for Ux, Initial residual = 0.0121709, Final residual = 2.54194e-05, No Iterations 5
DILUPBiCGStab:  Solving for Uy, Initial residual = 0.0197183, Final residual = 2.18964e-05, No Iterations 5
DILUPBiCGStab:  Solving for Uz, Initial residual = 0.036611, Final residual = 6.63706e-05, No Iterations 5
linear solve U 3262599
nonePCG:  Solving for p, Initial residual = 0.0181101, Final residual = 9.99057e-05, No Iterations 1294
linear solve p 73582525
[...]
/*---------------------------------------------------------------------------*\
| =========                 |                                                 |
| \\      /  F ield         | OpenFOAM: The Open Source CFD Toolbox           |
|  \\    /   O peration     | Version:  2112                                  |
|   \\  /    A nd           | Website:  www.openfoam.com                      |
|    \\/     M anipulation  |                                                 |
\*---------------------------------------------------------------------------*/
Build  : d44c8318f0-20220111 OPENFOAM=2112 version=v2112
Arch   : "LSB;label=32;scalar=64"
Exec   : icoFoam -parallel
Date   : Aug 05 2022
Time   : 13:49:50
Host   : hkn1154.localdomain
PID    : 500548
I/O    : uncollated
Case   : /hkfs/work/workspace/scratch/eq4036-lidDrivenCavity/single_node/mesh/100/matrix_solver/CG_NoPrecond_OpenFOAM_Default/mpiRank_of/76/base
nProcs : 76
Hosts  :
(
    (hkn1154.localdomain 76)
)
Pstream initialized with:
    floatTransfer      : 0
    nProcsSimpleSum    : 0
    commsType          : nonBlocking
    polling iterations : 0
trapFpe: Floating point exception trapping enabled (FOAM_SIGFPE).
fileModificationChecking : Monitoring run-time modified files using timeStampMaster (fileModificationSkew 5, maxFileModificationPolls 20)
allowSystemOperations : Allowing user-supplied system call operations

// * * * * * * * * * * * * * * * * * * * * * * * * * * * * * * * * * * * * * //
Create time

--> FOAM Warning : 
    From void* Foam::dlLibraryTable::openLibrary(const Foam::fileName&, bool)
    in file db/dynamicLibrary/dlLibraryTable/dlLibraryTable.C at line 188
    Could not load "libpetscFoam.so"
libcuda.so.1: cannot open shared object file: No such file or directory
Create mesh for time = 0


PISO: Operating solver in PISO mode

Reading transportProperties

Reading field p

Reading field U

Reading/calculating face flux field phi


Starting time loop

Time = 0.0001

Courant Number mean: 0 max: 0
DILUPBiCGStab:  Solving for Ux, Initial residual = 1, Final residual = 4.24195e-05, No Iterations 5
DILUPBiCGStab:  Solving for Uy:  solution singularity
DILUPBiCGStab:  Solving for Uz:  solution singularity
linear solve U 13052
nonePCG:  Solving for p, Initial residual = 1, Final residual = 9.71466e-05, No Iterations 794
linear solve p 190006
time step continuity errors : sum local = 1.71636e-09, global = -3.44123e-22, cumulative = -3.44123e-22
nonePCG:  Solving for p, Initial residual = 0.559957, Final residual = 9.81636e-05, No Iterations 777
linear solve p 170433
time step continuity errors : sum local = 2.68518e-09, global = -2.25126e-22, cumulative = -5.69249e-22
ExecutionTime = 0.77 s  ClockTime = 2 s

Time = 0.0002

Courant Number mean: 0.00201328 max: 0.0540371
DILUPBiCGStab:  Solving for Ux, Initial residual = 0.216463, Final residual = 2.0656e-05, No Iterations 5
DILUPBiCGStab:  Solving for Uy, Initial residual = 0.309947, Final residual = 2.07625e-05, No Iterations 5
DILUPBiCGStab:  Solving for Uz, Initial residual = 0.981322, Final residual = 7.16958e-05, No Iterations 5
linear solve U 17723
nonePCG:  Solving for p, Initial residual = 0.381695, Final residual = 9.16596e-05, No Iterations 769
linear solve p 177399
time step continuity errors : sum local = 2.39727e-09, global = 5.80541e-22, cumulative = 1.12923e-23
nonePCG:  Solving for p, Initial residual = 0.284799, Final residual = 9.70455e-05, No Iterations 764
linear solve p 175039
time step continuity errors : sum local = 2.65935e-09, global = -4.11526e-22, cumulative = -4.00234e-22
ExecutionTime = 1.17 s  ClockTime = 2 s

Time = 0.0003

Courant Number mean: 0.00317975 max: 0.0721773
DILUPBiCGStab:  Solving for Ux, Initial residual = 0.0963259, Final residual = 8.5543e-06, No Iterations 5
DILUPBiCGStab:  Solving for Uy, Initial residual = 0.140695, Final residual = 7.16239e-06, No Iterations 5
DILUPBiCGStab:  Solving for Uz, Initial residual = 0.205729, Final residual = 1.73224e-05, No Iterations 5
linear solve U 17732
nonePCG:  Solving for p, Initial residual = 0.128568, Final residual = 9.73992e-05, No Iterations 743
linear solve p 175769
time step continuity errors : sum local = 2.29503e-09, global = -1.75125e-21, cumulative = -2.15149e-21
nonePCG:  Solving for p, Initial residual = 0.0996026, Final residual = 9.4776e-05, No Iterations 737
linear solve p 179560
time step continuity errors : sum local = 2.26223e-09, global = -8.1734e-22, cumulative = -2.96883e-21
ExecutionTime = 1.56 s  ClockTime = 3 s

Time = 0.0004

Courant Number mean: 0.00397979 max: 0.0793325
DILUPBiCGStab:  Solving for Ux, Initial residual = 0.0593654, Final residual = 4.07886e-06, No Iterations 5
DILUPBiCGStab:  Solving for Uy, Initial residual = 0.0868106, Final residual = 3.52007e-06, No Iterations 5
DILUPBiCGStab:  Solving for Uz, Initial residual = 0.127109, Final residual = 6.65525e-06, No Iterations 5
linear solve U 26095
nonePCG:  Solving for p, Initial residual = 0.0642989, Final residual = 9.70822e-05, No Iterations 729
linear solve p 173675
time step continuity errors : sum local = 2.25082e-09, global = -1.59122e-21, cumulative = -4.56004e-21
nonePCG:  Solving for p, Initial residual = 0.0497339, Final residual = 9.73541e-05, No Iterations 720
linear solve p 163983
time step continuity errors : sum local = 2.29218e-09, global = -1.63742e-22, cumulative = -4.72378e-21
ExecutionTime = 1.95 s  ClockTime = 3 s

Time = 0.0005

Courant Number mean: 0.00460123 max: 0.082885
DILUPBiCGStab:  Solving for Ux, Initial residual = 0.0428603, Final residual = 1.60649e-06, No Iterations 5
DILUPBiCGStab:  Solving for Uy, Initial residual = 0.0618663, Final residual = 2.05086e-06, No Iterations 5
DILUPBiCGStab:  Solving for Uz, Initial residual = 0.0971584, Final residual = 4.1949e-06, No Iterations 5
linear solve U 18085
nonePCG:  Solving for p, Initial residual = 0.0389457, Final residual = 9.89917e-05, No Iterations 402
linear solve p 94575
time step continuity errors : sum local = 2.66536e-09, global = -2.24884e-21, cumulative = -6.97262e-21
nonePCG:  Solving for p, Initial residual = 0.0305765, Final residual = 9.85587e-05, No Iterations 339
linear solve p 76628
time step continuity errors : sum local = 2.4638e-09, global = -3.19083e-21, cumulative = -1.01634e-20
ExecutionTime = 2.16 s  ClockTime = 3 s

Time = 0.0006

Courant Number mean: 0.00511858 max: 0.0850107
DILUPBiCGStab:  Solving for Ux, Initial residual = 0.0336705, Final residual = 7.89158e-07, No Iterations 5
DILUPBiCGStab:  Solving for Uy, Initial residual = 0.0480502, Final residual = 1.39741e-06, No Iterations 5
DILUPBiCGStab:  Solving for Uz, Initial residual = 0.0802629, Final residual = 2.98583e-06, No Iterations 5
linear solve U 17901
nonePCG:  Solving for p, Initial residual = 0.0269247, Final residual = 9.74871e-05, No Iterations 341
linear solve p 79903
time step continuity errors : sum local = 2.54664e-09, global = -6.42792e-22, cumulative = -1.08062e-20
nonePCG:  Solving for p, Initial residual = 0.0213648, Final residual = 9.98096e-05, No Iterations 311
linear solve p 72831
time step continuity errors : sum local = 2.52661e-09, global = -1.73114e-21, cumulative = -1.25374e-20
ExecutionTime = 2.37 s  ClockTime = 3 s

Time = 0.0007

Courant Number mean: 0.00556491 max: 0.0864549
DILUPBiCGStab:  Solving for Ux, Initial residual = 0.027767, Final residual = 5.42585e-07, No Iterations 5
DILUPBiCGStab:  Solving for Uy, Initial residual = 0.0392382, Final residual = 1.07543e-06, No Iterations 5
DILUPBiCGStab:  Solving for Uz, Initial residual = 0.0677447, Final residual = 2.29915e-06, No Iterations 5
linear solve U 17854
nonePCG:  Solving for p, Initial residual = 0.0207712, Final residual = 9.71831e-05, No Iterations 301
linear solve p 71748
time step continuity errors : sum local = 2.59552e-09, global = -8.36486e-22, cumulative = -1.33739e-20
nonePCG:  Solving for p, Initial residual = 0.0165057, Final residual = 9.73691e-05, No Iterations 293
linear solve p 72647
time step continuity errors : sum local = 2.51882e-09, global = -2.17389e-21, cumulative = -1.55478e-20
ExecutionTime = 2.55 s  ClockTime = 4 s

Time = 0.0008

Courant Number mean: 0.00596223 max: 0.0875192
DILUPBiCGStab:  Solving for Ux, Initial residual = 0.0236246, Final residual = 4.34729e-07, No Iterations 5
DILUPBiCGStab:  Solving for Uy, Initial residual = 0.0331362, Final residual = 8.79632e-07, No Iterations 5
DILUPBiCGStab:  Solving for Uz, Initial residual = 0.0588701, Final residual = 1.89222e-06, No Iterations 5
linear solve U 18922
nonePCG:  Solving for p, Initial residual = 0.0166935, Final residual = 9.7696e-05, No Iterations 294
linear solve p 75536
time step continuity errors : sum local = 2.61869e-09, global = -2.00713e-21, cumulative = -1.75549e-20
nonePCG:  Solving for p, Initial residual = 0.0133966, Final residual = 9.89459e-05, No Iterations 287
linear solve p 66749
time step continuity errors : sum local = 2.5909e-09, global = -4.20001e-23, cumulative = -1.75969e-20
ExecutionTime = 2.74 s  ClockTime = 4 s

Time = 0.0009

Courant Number mean: 0.0063184 max: 0.0883466
DILUPBiCGStab:  Solving for Ux, Initial residual = 0.0205609, Final residual = 3.72402e-07, No Iterations 5
DILUPBiCGStab:  Solving for Uy, Initial residual = 0.0286503, Final residual = 7.45525e-07, No Iterations 5
DILUPBiCGStab:  Solving for Uz, Initial residual = 0.0520044, Final residual = 1.60422e-06, No Iterations 5
linear solve U 17899
nonePCG:  Solving for p, Initial residual = 0.0138985, Final residual = 9.88841e-05, No Iterations 288
linear solve p 67186
time step continuity errors : sum local = 2.66913e-09, global = 1.33176e-23, cumulative = -1.75836e-20
nonePCG:  Solving for p, Initial residual = 0.0112113, Final residual = 9.78896e-05, No Iterations 283
linear solve p 62157
time step continuity errors : sum local = 2.59565e-09, global = 1.49099e-22, cumulative = -1.74345e-20
ExecutionTime = 2.91 s  ClockTime = 4 s

Time = 0.001

Courant Number mean: 0.00664431 max: 0.089014
DILUPBiCGStab:  Solving for Ux, Initial residual = 0.0181849, Final residual = 3.29074e-07, No Iterations 5
DILUPBiCGStab:  Solving for Uy, Initial residual = 0.0252128, Final residual = 6.4589e-07, No Iterations 5
DILUPBiCGStab:  Solving for Uz, Initial residual = 0.046517, Final residual = 1.39178e-06, No Iterations 5
linear solve U 17399
nonePCG:  Solving for p, Initial residual = 0.0118843, Final residual = 9.92271e-05, No Iterations 285
linear solve p 65563
time step continuity errors : sum local = 2.69354e-09, global = 5.16574e-22, cumulative = -1.69179e-20
nonePCG:  Solving for p, Initial residual = 0.0096253, Final residual = 9.96231e-05, No Iterations 280
linear solve p 62339
time step continuity errors : sum local = 2.66261e-09, global = 2.04566e-21, cumulative = -1.48722e-20
ExecutionTime = 3.08 s  ClockTime = 4 s

Time = 0.0011

Courant Number mean: 0.00694526 max: 0.0895672
DILUPBiCGStab:  Solving for Ux, Initial residual = 0.0162983, Final residual = 2.95241e-07, No Iterations 5
DILUPBiCGStab:  Solving for Uy, Initial residual = 0.0224937, Final residual = 5.67881e-07, No Iterations 5
DILUPBiCGStab:  Solving for Uz, Initial residual = 0.0420352, Final residual = 1.22691e-06, No Iterations 5
linear solve U 17837
nonePCG:  Solving for p, Initial residual = 0.0102956, Final residual = 9.87005e-05, No Iterations 283
linear solve p 66761
time step continuity errors : sum local = 2.6965e-09, global = -2.01725e-21, cumulative = -1.68895e-20
nonePCG:  Solving for p, Initial residual = 0.00836473, Final residual = 9.51823e-05, No Iterations 278
linear solve p 62924
time step continuity errors : sum local = 2.57569e-09, global = -2.1728e-21, cumulative = -1.90623e-20
ExecutionTime = 3.26 s  ClockTime = 4 s

Time = 0.0012

Courant Number mean: 0.00722373 max: 0.0900355
DILUPBiCGStab:  Solving for Ux, Initial residual = 0.0147482, Final residual = 2.67135e-07, No Iterations 5
DILUPBiCGStab:  Solving for Uy, Initial residual = 0.0202892, Final residual = 5.04771e-07, No Iterations 5
DILUPBiCGStab:  Solving for Uz, Initial residual = 0.0383092, Final residual = 1.09456e-06, No Iterations 5
linear solve U 17985
nonePCG:  Solving for p, Initial residual = 0.00904951, Final residual = 9.76217e-05, No Iterations 279
linear solve p 64849
time step continuity errors : sum local = 2.68351e-09, global = -2.4232e-21, cumulative = -2.14855e-20
nonePCG:  Solving for p, Initial residual = 0.00738923, Final residual = 9.8681e-05, No Iterations 275
linear solve p 61668
time step continuity errors : sum local = 2.67913e-09, global = -2.4858e-21, cumulative = -2.39713e-20
ExecutionTime = 3.43 s  ClockTime = 5 s

Time = 0.0013

Courant Number mean: 0.00748295 max: 0.0904386
DILUPBiCGStab:  Solving for Ux, Initial residual = 0.0134669, Final residual = 2.43139e-07, No Iterations 5
DILUPBiCGStab:  Solving for Uy, Initial residual = 0.018466, Final residual = 4.52529e-07, No Iterations 5
DILUPBiCGStab:  Solving for Uz, Initial residual = 0.0351674, Final residual = 9.8615e-07, No Iterations 5
linear solve U 17678
nonePCG:  Solving for p, Initial residual = 0.0080965, Final residual = 9.7452e-05, No Iterations 276
linear solve p 64562
time step continuity errors : sum local = 2.69183e-09, global = -2.19707e-21, cumulative = -2.61684e-20
nonePCG:  Solving for p, Initial residual = 0.00663111, Final residual = 9.944e-05, No Iterations 271
linear solve p 60695
time step continuity errors : sum local = 2.71384e-09, global = -2.53225e-21, cumulative = -2.87006e-20
ExecutionTime = 3.59 s  ClockTime = 5 s

Time = 0.0014

Courant Number mean: 0.00772776 max: 0.0907902
DILUPBiCGStab:  Solving for Ux, Initial residual = 0.0123794, Final residual = 2.22327e-07, No Iterations 5
DILUPBiCGStab:  Solving for Uy, Initial residual = 0.0169331, Final residual = 4.08627e-07, No Iterations 5
DILUPBiCGStab:  Solving for Uz, Initial residual = 0.0324814, Final residual = 8.95786e-07, No Iterations 5
linear solve U 17595
nonePCG:  Solving for p, Initial residual = 0.00728135, Final residual = 9.83153e-05, No Iterations 274
linear solve p 65331
time step continuity errors : sum local = 2.72422e-09, global = -2.72496e-21, cumulative = -3.14256e-20
nonePCG:  Solving for p, Initial residual = 0.00598057, Final residual = 9.73157e-05, No Iterations 270
linear solve p 59932
time step continuity errors : sum local = 2.67553e-09, global = -1.79963e-21, cumulative = -3.32252e-20
ExecutionTime = 3.76 s  ClockTime = 5 s

Time = 0.0015

Courant Number mean: 0.00795854 max: 0.0911005
DILUPBiCGStab:  Solving for Ux, Initial residual = 0.011447, Final residual = 2.04116e-07, No Iterations 5
DILUPBiCGStab:  Solving for Uy, Initial residual = 0.0156265, Final residual = 3.7129e-07, No Iterations 5
DILUPBiCGStab:  Solving for Uz, Initial residual = 0.0301599, Final residual = 8.19146e-07, No Iterations 5
linear solve U 17570
nonePCG:  Solving for p, Initial residual = 0.00658156, Final residual = 9.81285e-05, No Iterations 271
linear solve p 62989
time step continuity errors : sum local = 2.72909e-09, global = -3.09308e-21, cumulative = -3.63183e-20
nonePCG:  Solving for p, Initial residual = 0.00542741, Final residual = 9.87953e-05, No Iterations 266
linear solve p 59758
time step continuity errors : sum local = 2.72421e-09, global = -1.39781e-21, cumulative = -3.77161e-20
ExecutionTime = 3.93 s  ClockTime = 5 s

Time = 0.0016

Courant Number mean: 0.00817642 max: 0.0913769
DILUPBiCGStab:  Solving for Ux, Initial residual = 0.0106406, Final residual = 1.88147e-07, No Iterations 5
DILUPBiCGStab:  Solving for Uy, Initial residual = 0.0144996, Final residual = 3.39252e-07, No Iterations 5
DILUPBiCGStab:  Solving for Uz, Initial residual = 0.0281346, Final residual = 7.53864e-07, No Iterations 5
linear solve U 17783
nonePCG:  Solving for p, Initial residual = 0.00603353, Final residual = 9.82127e-05, No Iterations 271
linear solve p 63032
time step continuity errors : sum local = 2.74056e-09, global = -3.01067e-21, cumulative = -4.07268e-20
nonePCG:  Solving for p, Initial residual = 0.00496622, Final residual = 9.48179e-05, No Iterations 265
linear solve p 63587
time step continuity errors : sum local = 2.63713e-09, global = -2.01907e-21, cumulative = -4.27458e-20
ExecutionTime = 4.1 s  ClockTime = 5 s

Time = 0.0017

Courant Number mean: 0.00838242 max: 0.0916251
DILUPBiCGStab:  Solving for Ux, Initial residual = 0.00993254, Final residual = 1.74057e-07, No Iterations 5
DILUPBiCGStab:  Solving for Uy, Initial residual = 0.0135178, Final residual = 3.11546e-07, No Iterations 5
DILUPBiCGStab:  Solving for Uz, Initial residual = 0.0263519, Final residual = 6.96736e-07, No Iterations 5
linear solve U 21309
nonePCG:  Solving for p, Initial residual = 0.00548984, Final residual = 9.96958e-05, No Iterations 266
linear solve p 69060
time step continuity errors : sum local = 2.78462e-09, global = -2.8455e-21, cumulative = -4.55913e-20
nonePCG:  Solving for p, Initial residual = 0.00454923, Final residual = 9.63767e-05, No Iterations 263
linear solve p 61553
time step continuity errors : sum local = 2.68506e-09, global = -1.27086e-21, cumulative = -4.68622e-20
ExecutionTime = 4.27 s  ClockTime = 5 s

Time = 0.0018

Courant Number mean: 0.00857949 max: 0.0918496
DILUPBiCGStab:  Solving for Ux, Initial residual = 0.00931113, Final residual = 1.61588e-07, No Iterations 5
DILUPBiCGStab:  Solving for Uy, Initial residual = 0.012655, Final residual = 2.87399e-07, No Iterations 5
DILUPBiCGStab:  Solving for Uz, Initial residual = 0.0247717, Final residual = 6.47283e-07, No Iterations 5
linear solve U 18906
nonePCG:  Solving for p, Initial residual = 0.00513515, Final residual = 9.95751e-05, No Iterations 264
linear solve p 65278
time step continuity errors : sum local = 2.78955e-09, global = -4.07407e-22, cumulative = -4.72696e-20
nonePCG:  Solving for p, Initial residual = 0.00426368, Final residual = 9.03789e-05, No Iterations 262
linear solve p 60930
time step continuity errors : sum local = 2.54558e-09, global = -3.06388e-21, cumulative = -5.03335e-20
ExecutionTime = 4.45 s  ClockTime = 6 s

Time = 0.0019

Courant Number mean: 0.00876806 max: 0.0920539
DILUPBiCGStab:  Solving for Ux, Initial residual = 0.00875826, Final residual = 1.50485e-07, No Iterations 5
DILUPBiCGStab:  Solving for Uy, Initial residual = 0.0118907, Final residual = 2.66211e-07, No Iterations 5
DILUPBiCGStab:  Solving for Uz, Initial residual = 0.023361, Final residual = 6.03406e-07, No Iterations 5
linear solve U 17703
nonePCG:  Solving for p, Initial residual = 0.00475306, Final residual = 9.87393e-05, No Iterations 265
linear solve p 64402
time step continuity errors : sum local = 2.77547e-09, global = -3.21595e-21, cumulative = -5.35494e-20
nonePCG:  Solving for p, Initial residual = 0.00394539, Final residual = 9.69478e-05, No Iterations 259
linear solve p 59966
time step continuity errors : sum local = 2.71584e-09, global = -3.50412e-21, cumulative = -5.70536e-20
ExecutionTime = 4.62 s  ClockTime = 6 s

Time = 0.002

Courant Number mean: 0.00894842 max: 0.0922409
DILUPBiCGStab:  Solving for Ux, Initial residual = 0.00826112, Final residual = 1.40546e-07, No Iterations 5
DILUPBiCGStab:  Solving for Uy, Initial residual = 0.011209, Final residual = 2.47526e-07, No Iterations 5
DILUPBiCGStab:  Solving for Uz, Initial residual = 0.0220947, Final residual = 5.64409e-07, No Iterations 5
linear solve U 18071
nonePCG:  Solving for p, Initial residual = 0.0043962, Final residual = 9.91219e-05, No Iterations 263
linear solve p 61197
time step continuity errors : sum local = 2.79092e-09, global = -3.46192e-21, cumulative = -6.05155e-20
nonePCG:  Solving for p, Initial residual = 0.00365204, Final residual = 9.78697e-05, No Iterations 255
linear solve p 59897
time step continuity errors : sum local = 2.74573e-09, global = -5.14918e-21, cumulative = -6.56647e-20
ExecutionTime = 4.78 s  ClockTime = 6 s

End

Finalising parallel run
================================================================================
