hash: b7ab28433f79fbdac10dc47ae2de4576
/*---------------------------------------------------------------------------*\
| =========                 |                                                 |
| \\      /  F ield         | OpenFOAM: The Open Source CFD Toolbox           |
|  \\    /   O peration     | Version:  2112                                  |
|   \\  /    A nd           | Website:  www.openfoam.com                      |
|    \\/     M anipulation  |                                                 |
\*---------------------------------------------------------------------------*/
Build  : d44c8318f0-20220111 OPENFOAM=2112 version=v2112
Arch   : "LSB;label=32;scalar=64"
Exec   : icoFoam -parallel
Date   : Feb 03 2022
Time   : 20:36:53
Host   : hkn0017.localdomain
PID    : 1974904
I/O    : uncollated
Case   : /hkfs/home/project/hk-project-test-fine/eq4036/data/code/ogl_labbook/lidDrivenCavity/resolution/Variation_mesh/100/Variation_matrix_solver/BiCGStab_NoPrecond_DefaultOF/Variation_mpiRank/76.0/base
nProcs : 76
Hosts  :
(
    (hkn0017.localdomain 76)
)
Pstream initialized with:
    floatTransfer      : 0
    nProcsSimpleSum    : 0
    commsType          : nonBlocking
    polling iterations : 0
trapFpe: Floating point exception trapping enabled (FOAM_SIGFPE).
fileModificationChecking : Monitoring run-time modified files using timeStampMaster (fileModificationSkew 5, maxFileModificationPolls 20)
allowSystemOperations : Allowing user-supplied system call operations

// * * * * * * * * * * * * * * * * * * * * * * * * * * * * * * * * * * * * * //
Create time

Create mesh for time = 0


PISO: Operating solver in PISO mode

Reading transportProperties

Reading field p

Reading field U

Reading/calculating face flux field phi


Starting time loop

Time = 0.0001

Courant Number mean: 0 max: 0
DILUPBiCGStab:  Solving for Ux, Initial residual = 1, Final residual = 1.46065e-05, No Iterations 5
DILUPBiCGStab:  Solving for Uy:  solution singularity
DILUPBiCGStab:  Solving for Uz:  solution singularity
linear solve U 11583
nonePBiCGStab:  Solving for p, Initial residual = 1, Final residual = 8.30332e-05, No Iterations 559
linear solve p 305933
time step continuity errors : sum local = 2.93439e-09, global = -3.92911e-23, cumulative = -3.92911e-23
nonePBiCGStab:  Solving for p, Initial residual = 0.55849, Final residual = 7.31993e-05, No Iterations 505
linear solve p 235953
time step continuity errors : sum local = 3.99405e-09, global = -2.17879e-22, cumulative = -2.5717e-22
ExecutionTime = 0.76 s  ClockTime = 1 s

Time = 0.0002

Courant Number mean: 0.00201326 max: 0.0540371
DILUPBiCGStab:  Solving for Ux, Initial residual = 0.216449, Final residual = 1.09003e-05, No Iterations 5
DILUPBiCGStab:  Solving for Uy, Initial residual = 0.309939, Final residual = 1.0781e-05, No Iterations 5
DILUPBiCGStab:  Solving for Uz, Initial residual = 0.97429, Final residual = 3.63025e-05, No Iterations 5
linear solve U 16193
nonePBiCGStab:  Solving for p, Initial residual = 0.381745, Final residual = 7.93314e-05, No Iterations 518
linear solve p 244471
time step continuity errors : sum local = 3.13501e-09, global = -4.34766e-22, cumulative = -6.91937e-22
nonePBiCGStab:  Solving for p, Initial residual = 0.284923, Final residual = 9.88556e-05, No Iterations 532
linear solve p 243686
time step continuity errors : sum local = 5.36389e-09, global = -8.94348e-22, cumulative = -1.58628e-21
ExecutionTime = 1.28 s  ClockTime = 1 s

Time = 0.0003

Courant Number mean: 0.00317976 max: 0.0721775
DILUPBiCGStab:  Solving for Ux, Initial residual = 0.0962652, Final residual = 4.2044e-06, No Iterations 5
DILUPBiCGStab:  Solving for Uy, Initial residual = 0.140681, Final residual = 3.58034e-06, No Iterations 5
DILUPBiCGStab:  Solving for Uz, Initial residual = 0.269636, Final residual = 1.55249e-05, No Iterations 5
linear solve U 15954
nonePBiCGStab:  Solving for p, Initial residual = 0.129958, Final residual = 9.12722e-05, No Iterations 227
linear solve p 105660
time step continuity errors : sum local = 3.03808e-09, global = -4.2881e-22, cumulative = -2.01509e-21
nonePBiCGStab:  Solving for p, Initial residual = 0.100966, Final residual = 9.54694e-05, No Iterations 231
linear solve p 106798
time step continuity errors : sum local = 4.23469e-09, global = -4.89691e-23, cumulative = -2.06406e-21
ExecutionTime = 1.53 s  ClockTime = 2 s

Time = 0.0004

Courant Number mean: 0.00397978 max: 0.0793328
DILUPBiCGStab:  Solving for Ux, Initial residual = 0.0592774, Final residual = 1.89453e-06, No Iterations 5
DILUPBiCGStab:  Solving for Uy, Initial residual = 0.086881, Final residual = 1.95374e-06, No Iterations 5
DILUPBiCGStab:  Solving for Uz, Initial residual = 0.139499, Final residual = 4.55057e-06, No Iterations 5
linear solve U 15874
nonePBiCGStab:  Solving for p, Initial residual = 0.065509, Final residual = 9.4074e-05, No Iterations 225
linear solve p 103188
time step continuity errors : sum local = 2.52942e-09, global = -4.99617e-22, cumulative = -2.56368e-21
nonePBiCGStab:  Solving for p, Initial residual = 0.050907, Final residual = 9.32838e-05, No Iterations 233
linear solve p 107987
time step continuity errors : sum local = 3.82256e-09, global = -1.07484e-21, cumulative = -3.63852e-21
ExecutionTime = 1.77 s  ClockTime = 2 s

Time = 0.0005

Courant Number mean: 0.00460123 max: 0.0828849
DILUPBiCGStab:  Solving for Ux, Initial residual = 0.0428062, Final residual = 1.41913e-06, No Iterations 5
DILUPBiCGStab:  Solving for Uy, Initial residual = 0.0619338, Final residual = 1.33071e-06, No Iterations 5
DILUPBiCGStab:  Solving for Uz, Initial residual = 0.101369, Final residual = 2.64442e-06, No Iterations 5
linear solve U 15521
nonePBiCGStab:  Solving for p, Initial residual = 0.0398297, Final residual = 9.9045e-05, No Iterations 218
linear solve p 101121
time step continuity errors : sum local = 2.83523e-09, global = -8.72179e-22, cumulative = -4.5107e-21
nonePBiCGStab:  Solving for p, Initial residual = 0.0314699, Final residual = 9.26964e-05, No Iterations 220
linear solve p 100862
time step continuity errors : sum local = 3.55816e-09, global = -1.44542e-21, cumulative = -5.95611e-21
ExecutionTime = 2.01 s  ClockTime = 2 s

End

Finalising parallel run
================================================================================
hash: dce686c357089dd9b94635f066a850c2
/*---------------------------------------------------------------------------*\
| =========                 |                                                 |
| \\      /  F ield         | OpenFOAM: The Open Source CFD Toolbox           |
|  \\    /   O peration     | Version:  2112                                  |
|   \\  /    A nd           | Website:  www.openfoam.com                      |
|    \\/     M anipulation  |                                                 |
\*---------------------------------------------------------------------------*/
Build  : d44c8318f0-20220111 OPENFOAM=2112 version=v2112
Arch   : "LSB;label=32;scalar=64"
Exec   : icoFoam -parallel
Date   : Feb 03 2022
Time   : 20:36:59
Host   : hkn0017.localdomain
PID    : 1976588
I/O    : uncollated
Case   : /hkfs/home/project/hk-project-test-fine/eq4036/data/code/ogl_labbook/lidDrivenCavity/resolution/Variation_mesh/100/Variation_matrix_solver/CG_NoPrecond_DefaultOF/Variation_mpiRank/76.0/base
nProcs : 76
Hosts  :
(
    (hkn0017.localdomain 76)
)
Pstream initialized with:
    floatTransfer      : 0
    nProcsSimpleSum    : 0
    commsType          : nonBlocking
    polling iterations : 0
trapFpe: Floating point exception trapping enabled (FOAM_SIGFPE).
fileModificationChecking : Monitoring run-time modified files using timeStampMaster (fileModificationSkew 5, maxFileModificationPolls 20)
allowSystemOperations : Allowing user-supplied system call operations

// * * * * * * * * * * * * * * * * * * * * * * * * * * * * * * * * * * * * * //
Create time

Create mesh for time = 0


PISO: Operating solver in PISO mode

Reading transportProperties

Reading field p

Reading field U

Reading/calculating face flux field phi


Starting time loop

Time = 0.0001

Courant Number mean: 0 max: 0
DILUPBiCGStab:  Solving for Ux, Initial residual = 1, Final residual = 1.46065e-05, No Iterations 5
DILUPBiCGStab:  Solving for Uy:  solution singularity
DILUPBiCGStab:  Solving for Uz:  solution singularity
linear solve U 12264
nonePCG:  Solving for p, Initial residual = 1, Final residual = 9.62667e-05, No Iterations 756
linear solve p 148591
time step continuity errors : sum local = 1.70126e-09, global = -1.61447e-21, cumulative = -1.61447e-21
nonePCG:  Solving for p, Initial residual = 0.558353, Final residual = 9.69672e-05, No Iterations 746
linear solve p 145387
time step continuity errors : sum local = 2.66057e-09, global = -8.2784e-22, cumulative = -2.44231e-21
ExecutionTime = 0.5 s  ClockTime = 1 s

Time = 0.0002

Courant Number mean: 0.00201331 max: 0.0540371
DILUPBiCGStab:  Solving for Ux, Initial residual = 0.216464, Final residual = 1.09012e-05, No Iterations 5
DILUPBiCGStab:  Solving for Uy, Initial residual = 0.30994, Final residual = 1.07808e-05, No Iterations 5
DILUPBiCGStab:  Solving for Uz, Initial residual = 0.98129, Final residual = 3.21949e-05, No Iterations 5
linear solve U 17076
nonePCG:  Solving for p, Initial residual = 0.381572, Final residual = 9.45721e-05, No Iterations 729
linear solve p 171736
time step continuity errors : sum local = 2.47486e-09, global = -4.46093e-22, cumulative = -2.8884e-21
nonePCG:  Solving for p, Initial residual = 0.284667, Final residual = 9.90004e-05, No Iterations 703
linear solve p 149503
time step continuity errors : sum local = 2.71511e-09, global = -9.31933e-22, cumulative = -3.82033e-21
ExecutionTime = 0.86 s  ClockTime = 1 s

Time = 0.0003

Courant Number mean: 0.00317978 max: 0.0721774
DILUPBiCGStab:  Solving for Ux, Initial residual = 0.0963259, Final residual = 4.20811e-06, No Iterations 5
DILUPBiCGStab:  Solving for Uy, Initial residual = 0.140691, Final residual = 3.582e-06, No Iterations 5
DILUPBiCGStab:  Solving for Uz, Initial residual = 0.205632, Final residual = 8.0416e-06, No Iterations 5
linear solve U 17955
nonePCG:  Solving for p, Initial residual = 0.128522, Final residual = 9.83065e-05, No Iterations 697
linear solve p 139759
time step continuity errors : sum local = 2.317e-09, global = -1.0962e-21, cumulative = -4.91653e-21
nonePCG:  Solving for p, Initial residual = 0.0995971, Final residual = 9.53216e-05, No Iterations 693
linear solve p 135525
time step continuity errors : sum local = 2.27557e-09, global = -1.04813e-21, cumulative = -5.96466e-21
ExecutionTime = 1.17 s  ClockTime = 1 s

Time = 0.0004

Courant Number mean: 0.00397984 max: 0.0793325
DILUPBiCGStab:  Solving for Ux, Initial residual = 0.0593654, Final residual = 1.89773e-06, No Iterations 5
DILUPBiCGStab:  Solving for Uy, Initial residual = 0.0868084, Final residual = 1.9517e-06, No Iterations 5
DILUPBiCGStab:  Solving for Uz, Initial residual = 0.126687, Final residual = 3.93747e-06, No Iterations 5
linear solve U 15809
nonePCG:  Solving for p, Initial residual = 0.0642975, Final residual = 9.89832e-05, No Iterations 681
linear solve p 133523
time step continuity errors : sum local = 2.29535e-09, global = -1.17115e-21, cumulative = -7.13581e-21
nonePCG:  Solving for p, Initial residual = 0.0497415, Final residual = 9.88352e-05, No Iterations 672
linear solve p 133190
time step continuity errors : sum local = 2.32696e-09, global = -1.54274e-21, cumulative = -8.67855e-21
ExecutionTime = 1.48 s  ClockTime = 2 s

Time = 0.0005

Courant Number mean: 0.00460128 max: 0.0828851
DILUPBiCGStab:  Solving for Ux, Initial residual = 0.0428599, Final residual = 1.42116e-06, No Iterations 5
DILUPBiCGStab:  Solving for Uy, Initial residual = 0.0618653, Final residual = 1.32895e-06, No Iterations 5
DILUPBiCGStab:  Solving for Uz, Initial residual = 0.0973511, Final residual = 2.7431e-06, No Iterations 5
linear solve U 16252
nonePCG:  Solving for p, Initial residual = 0.0389641, Final residual = 9.74903e-05, No Iterations 670
linear solve p 131553
time step continuity errors : sum local = 2.29336e-09, global = -4.84204e-22, cumulative = -9.16275e-21
nonePCG:  Solving for p, Initial residual = 0.0306017, Final residual = 9.71421e-05, No Iterations 637
linear solve p 125110
time step continuity errors : sum local = 2.30142e-09, global = -1.43838e-21, cumulative = -1.06011e-20
ExecutionTime = 1.77 s  ClockTime = 2 s

End

Finalising parallel run
================================================================================
hash: 84b653a815d4af053681f72340be4874
/*---------------------------------------------------------------------------*\
| =========                 |                                                 |
| \\      /  F ield         | OpenFOAM: The Open Source CFD Toolbox           |
|  \\    /   O peration     | Version:  2112                                  |
|   \\  /    A nd           | Website:  www.openfoam.com                      |
|    \\/     M anipulation  |                                                 |
\*---------------------------------------------------------------------------*/
Build  : d44c8318f0-20220111 OPENFOAM=2112 version=v2112
Arch   : "LSB;label=32;scalar=64"
Exec   : icoFoam -parallel
Date   : Feb 03 2022
Time   : 20:36:45
Host   : hkn0003.localdomain
PID    : 2386264
I/O    : uncollated
Case   : /hkfs/home/project/hk-project-test-fine/eq4036/data/code/ogl_labbook/lidDrivenCavity/resolution/Variation_mesh/200/Variation_matrix_solver/BiCGStab_NoPrecond_DefaultOF/Variation_mpiRank/76.0/base
nProcs : 76
Hosts  :
(
    (hkn0003.localdomain 76)
)
Pstream initialized with:
    floatTransfer      : 0
    nProcsSimpleSum    : 0
    commsType          : nonBlocking
    polling iterations : 0
trapFpe: Floating point exception trapping enabled (FOAM_SIGFPE).
fileModificationChecking : Monitoring run-time modified files using timeStampMaster (fileModificationSkew 5, maxFileModificationPolls 20)
allowSystemOperations : Allowing user-supplied system call operations

// * * * * * * * * * * * * * * * * * * * * * * * * * * * * * * * * * * * * * //
Create time

Create mesh for time = 0


PISO: Operating solver in PISO mode

Reading transportProperties

Reading field p

Reading field U

Reading/calculating face flux field phi


Starting time loop

Time = 5e-05

Courant Number mean: 0 max: 0
DILUPBiCGStab:  Solving for Ux, Initial residual = 1, Final residual = 0.000198203, No Iterations 5
DILUPBiCGStab:  Solving for Uy:  solution singularity
DILUPBiCGStab:  Solving for Uz:  solution singularity
linear solve U 175599
nonePBiCGStab:  Solving for p, Initial residual = 1, Final residual = 6.96421e-05, No Iterations 1143
linear solve p 11746788
time step continuity errors : sum local = 8.14667e-10, global = 1.2887e-22, cumulative = 1.2887e-22
nonePBiCGStab:  Solving for p, Initial residual = 0.645639, Final residual = 9.91897e-05, No Iterations 1270
linear solve p 12958159
time step continuity errors : sum local = 1.82394e-09, global = -2.86949e-22, cumulative = -1.58079e-22
ExecutionTime = 25.59 s  ClockTime = 27 s

Time = 0.0001

Courant Number mean: 0.00156127 max: 0.0657865
DILUPBiCGStab:  Solving for Ux, Initial residual = 0.189879, Final residual = 0.000164594, No Iterations 5
DILUPBiCGStab:  Solving for Uy, Initial residual = 0.33003, Final residual = 0.000209846, No Iterations 5
DILUPBiCGStab:  Solving for Uz, Initial residual = 0.972071, Final residual = 0.000979898, No Iterations 5
linear solve U 343244
nonePBiCGStab:  Solving for p, Initial residual = 0.514623, Final residual = 8.54767e-05, No Iterations 1099
linear solve p 11093440
time step continuity errors : sum local = 1.33698e-09, global = 7.23783e-23, cumulative = -8.57004e-23
nonePBiCGStab:  Solving for p, Initial residual = 0.425723, Final residual = 9.84942e-05, No Iterations 501
linear solve p 5124674
time step continuity errors : sum local = 1.82843e-09, global = -4.97136e-23, cumulative = -1.35414e-22
ExecutionTime = 42.35 s  ClockTime = 44 s

Time = 0.00015

Courant Number mean: 0.00241148 max: 0.0810523
DILUPBiCGStab:  Solving for Ux, Initial residual = 0.0802294, Final residual = 5.22098e-05, No Iterations 5
DILUPBiCGStab:  Solving for Uy, Initial residual = 0.137617, Final residual = 5.8527e-05, No Iterations 5
DILUPBiCGStab:  Solving for Uz, Initial residual = 0.233872, Final residual = 0.00023882, No Iterations 5
linear solve U 340602
nonePBiCGStab:  Solving for p, Initial residual = 0.256686, Final residual = 7.01715e-05, No Iterations 1264
linear solve p 12794177
time step continuity errors : sum local = 6.06964e-10, global = 5.60415e-23, cumulative = -7.93725e-23
nonePBiCGStab:  Solving for p, Initial residual = 0.213384, Final residual = 2.74145e-05, No Iterations 1233
linear solve p 12443108
time step continuity errors : sum local = 3.49237e-10, global = -2.00385e-23, cumulative = -9.9411e-23
ExecutionTime = 68.06 s  ClockTime = 69 s

Time = 0.0002

Courant Number mean: 0.00299643 max: 0.0859671
DILUPBiCGStab:  Solving for Ux, Initial residual = 0.0511397, Final residual = 2.7135e-05, No Iterations 5
DILUPBiCGStab:  Solving for Uy, Initial residual = 0.0859017, Final residual = 3.01515e-05, No Iterations 5
DILUPBiCGStab:  Solving for Uz, Initial residual = 0.128174, Final residual = 0.000109098, No Iterations 5
linear solve U 335186
nonePBiCGStab:  Solving for p, Initial residual = 0.126363, Final residual = 9.59682e-05, No Iterations 461
linear solve p 4636655
time step continuity errors : sum local = 7.79581e-10, global = -2.09375e-22, cumulative = -3.08786e-22
nonePBiCGStab:  Solving for p, Initial residual = 0.102739, Final residual = 6.31904e-05, No Iterations 457
linear solve p 4679382
time step continuity errors : sum local = 4.88689e-10, global = -1.11307e-22, cumulative = -4.20093e-22
ExecutionTime = 77.94 s  ClockTime = 79 s

Time = 0.00025

Courant Number mean: 0.00346127 max: 0.0883159
DILUPBiCGStab:  Solving for Ux, Initial residual = 0.0380031, Final residual = 1.67749e-05, No Iterations 5
DILUPBiCGStab:  Solving for Uy, Initial residual = 0.0620515, Final residual = 1.81762e-05, No Iterations 5
DILUPBiCGStab:  Solving for Uz, Initial residual = 0.0977913, Final residual = 7.20123e-05, No Iterations 5
linear solve U 333528
nonePBiCGStab:  Solving for p, Initial residual = 0.0646991, Final residual = 9.71075e-05, No Iterations 450
linear solve p 4561779
time step continuity errors : sum local = 7.78526e-10, global = -4.68805e-23, cumulative = -4.66974e-22
nonePBiCGStab:  Solving for p, Initial residual = 0.0546361, Final residual = 9.50293e-05, No Iterations 443
linear solve p 4471128
time step continuity errors : sum local = 7.21191e-10, global = 4.6379e-23, cumulative = -4.20595e-22
ExecutionTime = 87.52 s  ClockTime = 89 s

End

Finalising parallel run
================================================================================
hash: 619481a978ab14afc6d9dc607720345f
/*---------------------------------------------------------------------------*\
| =========                 |                                                 |
| \\      /  F ield         | OpenFOAM: The Open Source CFD Toolbox           |
|  \\    /   O peration     | Version:  2112                                  |
|   \\  /    A nd           | Website:  www.openfoam.com                      |
|    \\/     M anipulation  |                                                 |
\*---------------------------------------------------------------------------*/
Build  : d44c8318f0-20220111 OPENFOAM=2112 version=v2112
Arch   : "LSB;label=32;scalar=64"
Exec   : icoFoam -parallel
Date   : Feb 03 2022
Time   : 20:38:18
Host   : hkn0003.localdomain
PID    : 2388030
I/O    : uncollated
Case   : /hkfs/home/project/hk-project-test-fine/eq4036/data/code/ogl_labbook/lidDrivenCavity/resolution/Variation_mesh/200/Variation_matrix_solver/CG_NoPrecond_DefaultOF/Variation_mpiRank/76.0/base
nProcs : 76
Hosts  :
(
    (hkn0003.localdomain 76)
)
Pstream initialized with:
    floatTransfer      : 0
    nProcsSimpleSum    : 0
    commsType          : nonBlocking
    polling iterations : 0
trapFpe: Floating point exception trapping enabled (FOAM_SIGFPE).
fileModificationChecking : Monitoring run-time modified files using timeStampMaster (fileModificationSkew 5, maxFileModificationPolls 20)
allowSystemOperations : Allowing user-supplied system call operations

// * * * * * * * * * * * * * * * * * * * * * * * * * * * * * * * * * * * * * //
Create time

Create mesh for time = 0


PISO: Operating solver in PISO mode

Reading transportProperties

Reading field p

Reading field U

Reading/calculating face flux field phi


Starting time loop

Time = 5e-05

Courant Number mean: 0 max: 0
DILUPBiCGStab:  Solving for Ux, Initial residual = 1, Final residual = 0.000198203, No Iterations 5
DILUPBiCGStab:  Solving for Uy:  solution singularity
DILUPBiCGStab:  Solving for Uz:  solution singularity
linear solve U 178296
nonePCG:  Solving for p, Initial residual = 1, Final residual = 9.95135e-05, No Iterations 1557
linear solve p 6169612
time step continuity errors : sum local = 6.6131e-10, global = 7.4571e-23, cumulative = 7.4571e-23
nonePCG:  Solving for p, Initial residual = 0.645684, Final residual = 9.87451e-05, No Iterations 1516
linear solve p 6124174
time step continuity errors : sum local = 9.46643e-10, global = -8.60119e-23, cumulative = -1.14409e-23
ExecutionTime = 13.22 s  ClockTime = 14 s

Time = 0.0001

Courant Number mean: 0.00156121 max: 0.0657865
DILUPBiCGStab:  Solving for Ux, Initial residual = 0.189843, Final residual = 0.000164542, No Iterations 5
DILUPBiCGStab:  Solving for Uy, Initial residual = 0.330086, Final residual = 0.000209695, No Iterations 5
DILUPBiCGStab:  Solving for Uz, Initial residual = 0.987063, Final residual = 0.000673064, No Iterations 5
linear solve U 332570
nonePCG:  Solving for p, Initial residual = 0.514343, Final residual = 9.8357e-05, No Iterations 1481
linear solve p 5906533
time step continuity errors : sum local = 9.24598e-10, global = -1.05728e-22, cumulative = -1.17169e-22
nonePCG:  Solving for p, Initial residual = 0.425344, Final residual = 9.70839e-05, No Iterations 1475
linear solve p 5907240
time step continuity errors : sum local = 9.40874e-10, global = 1.06249e-22, cumulative = -1.09193e-23
ExecutionTime = 25.56 s  ClockTime = 26 s

Time = 0.00015

Courant Number mean: 0.00241147 max: 0.0810524
DILUPBiCGStab:  Solving for Ux, Initial residual = 0.0803545, Final residual = 5.23279e-05, No Iterations 5
DILUPBiCGStab:  Solving for Uy, Initial residual = 0.137298, Final residual = 5.81833e-05, No Iterations 5
DILUPBiCGStab:  Solving for Uz, Initial residual = 0.0960265, Final residual = 8.98224e-05, No Iterations 5
linear solve U 338223
nonePCG:  Solving for p, Initial residual = 0.254196, Final residual = 9.87863e-05, No Iterations 1425
linear solve p 5670143
time step continuity errors : sum local = 7.12789e-10, global = -3.99489e-23, cumulative = -5.08682e-23
nonePCG:  Solving for p, Initial residual = 0.21097, Final residual = 9.84796e-05, No Iterations 1420
linear solve p 5631787
time step continuity errors : sum local = 7.02511e-10, global = -8.65664e-23, cumulative = -1.37435e-22
ExecutionTime = 37.4 s  ClockTime = 38 s

Time = 0.0002

Courant Number mean: 0.00299642 max: 0.0859672
DILUPBiCGStab:  Solving for Ux, Initial residual = 0.0511464, Final residual = 2.71493e-05, No Iterations 5
DILUPBiCGStab:  Solving for Uy, Initial residual = 0.0858859, Final residual = 3.00941e-05, No Iterations 5
DILUPBiCGStab:  Solving for Uz, Initial residual = 0.114535, Final residual = 6.90406e-05, No Iterations 5
linear solve U 340034
nonePCG:  Solving for p, Initial residual = 0.124674, Final residual = 9.89398e-05, No Iterations 1401
linear solve p 5595711
time step continuity errors : sum local = 6.70586e-10, global = 3.57121e-23, cumulative = -1.01723e-22
nonePCG:  Solving for p, Initial residual = 0.101421, Final residual = 9.78493e-05, No Iterations 1397
linear solve p 5510985
time step continuity errors : sum local = 6.70568e-10, global = 1.27144e-22, cumulative = 2.54219e-23
ExecutionTime = 49.06 s  ClockTime = 50 s

Time = 0.00025

Courant Number mean: 0.00346127 max: 0.0883158
DILUPBiCGStab:  Solving for Ux, Initial residual = 0.0380498, Final residual = 1.68012e-05, No Iterations 5
DILUPBiCGStab:  Solving for Uy, Initial residual = 0.0619933, Final residual = 1.81782e-05, No Iterations 5
DILUPBiCGStab:  Solving for Uz, Initial residual = 0.0930156, Final residual = 4.35557e-05, No Iterations 5
linear solve U 337189
nonePCG:  Solving for p, Initial residual = 0.0636364, Final residual = 9.80148e-05, No Iterations 1390
linear solve p 5501106
time step continuity errors : sum local = 6.4801e-10, global = -5.99593e-24, cumulative = 1.9426e-23
nonePCG:  Solving for p, Initial residual = 0.0538269, Final residual = 9.68297e-05, No Iterations 1388
linear solve p 5471345
time step continuity errors : sum local = 6.41104e-10, global = 1.38152e-22, cumulative = 1.57578e-22
ExecutionTime = 60.57 s  ClockTime = 62 s

End

Finalising parallel run
================================================================================
hash: 0ea9f6d060467dccf11f1fdcba63cdc7
/*---------------------------------------------------------------------------*\
| =========                 |                                                 |
| \\      /  F ield         | OpenFOAM: The Open Source CFD Toolbox           |
|  \\    /   O peration     | Version:  2112                                  |
|   \\  /    A nd           | Website:  www.openfoam.com                      |
|    \\/     M anipulation  |                                                 |
\*---------------------------------------------------------------------------*/
Build  : d44c8318f0-20220111 OPENFOAM=2112 version=v2112
Arch   : "LSB;label=32;scalar=64"
Exec   : icoFoam -parallel
Date   : Feb 03 2022
Time   : 20:36:39
Host   : hkn1103.localdomain
PID    : 2627754
I/O    : uncollated
Case   : /hkfs/home/project/hk-project-test-fine/eq4036/data/code/ogl_labbook/lidDrivenCavity/resolution/Variation_mesh/300/Variation_matrix_solver/BiCGStab_NoPrecond_DefaultOF/Variation_mpiRank/76.0/base
nProcs : 76
Hosts  :
(
    (hkn1103.localdomain 76)
)
Pstream initialized with:
    floatTransfer      : 0
    nProcsSimpleSum    : 0
    commsType          : nonBlocking
    polling iterations : 0
trapFpe: Floating point exception trapping enabled (FOAM_SIGFPE).
fileModificationChecking : Monitoring run-time modified files using timeStampMaster (fileModificationSkew 5, maxFileModificationPolls 20)
allowSystemOperations : Allowing user-supplied system call operations

// * * * * * * * * * * * * * * * * * * * * * * * * * * * * * * * * * * * * * //
Create time

Create mesh for time = 0


PISO: Operating solver in PISO mode

Reading transportProperties

Reading field p

Reading field U

Reading/calculating face flux field phi


Starting time loop

Time = 3.33333e-05

Courant Number mean: 0 max: 0
DILUPBiCGStab:  Solving for Ux, Initial residual = 1, Final residual = 0.000816828, No Iterations 5
DILUPBiCGStab:  Solving for Uy:  solution singularity
DILUPBiCGStab:  Solving for Uz:  solution singularity
linear solve U 641177
nonePBiCGStab:  Solving for p, Initial residual = 1, Final residual = 5.97771e-05, No Iterations 1902
linear solve p 73091162
time step continuity errors : sum local = 3.90256e-10, global = -6.87663e-23, cumulative = -6.87663e-23
nonePBiCGStab:  Solving for p, Initial residual = 0.691331, Final residual = 8.46681e-05, No Iterations 1753
linear solve p 67240566
time step continuity errors : sum local = 8.09943e-10, global = -1.0712e-22, cumulative = -1.75886e-22
ExecutionTime = 143.03 s  ClockTime = 144 s

Time = 6.66667e-05

Courant Number mean: 0.00132168 max: 0.0715639
DILUPBiCGStab:  Solving for Ux, Initial residual = 0.172499, Final residual = 0.000560211, No Iterations 5
DILUPBiCGStab:  Solving for Uy, Initial residual = 0.340838, Final residual = 0.000571211, No Iterations 5
DILUPBiCGStab:  Solving for Uz, Initial residual = 0.962628, Final residual = 0.00370518, No Iterations 5
linear solve U 1227401
nonePBiCGStab:  Solving for p, Initial residual = 0.608582, Final residual = 8.195e-05, No Iterations 1855
linear solve p 70720964
time step continuity errors : sum local = 8.85542e-10, global = -1.1746e-22, cumulative = -2.93346e-22
nonePBiCGStab:  Solving for p, Initial residual = 0.529766, Final residual = 9.32834e-05, No Iterations 1840
linear solve p 70679405
time step continuity errors : sum local = 1.02847e-09, global = -1.01192e-22, cumulative = -3.94538e-22
ExecutionTime = 286.02 s  ClockTime = 287 s

Time = 0.0001

Courant Number mean: 0.0020246 max: 0.0848348
DILUPBiCGStab:  Solving for Ux, Initial residual = 0.0715239, Final residual = 0.000163085, No Iterations 5
DILUPBiCGStab:  Solving for Uy, Initial residual = 0.137579, Final residual = 0.000219464, No Iterations 5
DILUPBiCGStab:  Solving for Uz, Initial residual = 0.521825, Final residual = 0.00140815, No Iterations 5
linear solve U 1245164
nonePBiCGStab:  Solving for p, Initial residual = 0.43099, Final residual = 2.16465e-05, No Iterations 1995
linear solve p 76728572
time step continuity errors : sum local = 8.69651e-11, global = -1.77062e-22, cumulative = -5.716e-22
nonePBiCGStab:  Solving for p, Initial residual = 0.376499, Final residual = 9.15092e-05, No Iterations 2015
linear solve p 76894690
time step continuity errors : sum local = 4.79908e-10, global = -1.90617e-22, cumulative = -7.62217e-22
ExecutionTime = 441.18 s  ClockTime = 443 s

Time = 0.000133333

Courant Number mean: 0.00251146 max: 0.0887256
DILUPBiCGStab:  Solving for Ux, Initial residual = 0.0467383, Final residual = 7.04082e-05, No Iterations 5
DILUPBiCGStab:  Solving for Uy, Initial residual = 0.0862049, Final residual = 0.000118944, No Iterations 5
DILUPBiCGStab:  Solving for Uz, Initial residual = 0.159687, Final residual = 0.000461103, No Iterations 5
linear solve U 1230710
nonePBiCGStab:  Solving for p, Initial residual = 0.222586, Final residual = 9.90525e-05, No Iterations 1505
linear solve p 57384902
time step continuity errors : sum local = 6.11948e-10, global = -1.49058e-22, cumulative = -9.11275e-22
nonePBiCGStab:  Solving for p, Initial residual = 0.183115, Final residual = 9.80812e-05, No Iterations 710
linear solve p 26996399
time step continuity errors : sum local = 4.92933e-10, global = -2.97689e-22, cumulative = -1.20896e-21
ExecutionTime = 527.38 s  ClockTime = 530 s

Time = 0.000166667

Courant Number mean: 0.00290276 max: 0.0905871
DILUPBiCGStab:  Solving for Ux, Initial residual = 0.0351484, Final residual = 4.34917e-05, No Iterations 5
DILUPBiCGStab:  Solving for Uy, Initial residual = 0.0626743, Final residual = 7.43663e-05, No Iterations 5
DILUPBiCGStab:  Solving for Uz, Initial residual = 0.176318, Final residual = 0.00047352, No Iterations 5
linear solve U 1232653
nonePBiCGStab:  Solving for p, Initial residual = 0.132047, Final residual = 7.77423e-05, No Iterations 1750
linear solve p 66562974
time step continuity errors : sum local = 3.10538e-10, global = -2.22332e-22, cumulative = -1.4313e-21
nonePBiCGStab:  Solving for p, Initial residual = 0.110997, Final residual = 9.06658e-05, No Iterations 1935
linear solve p 73830874
time step continuity errors : sum local = 3.60808e-10, global = -4.58086e-23, cumulative = -1.4771e-21
ExecutionTime = 669.37 s  ClockTime = 672 s

End

Finalising parallel run
================================================================================
hash: 7172e229f0ac2bb28b8d41af31f3164f
/*---------------------------------------------------------------------------*\
| =========                 |                                                 |
| \\      /  F ield         | OpenFOAM: The Open Source CFD Toolbox           |
|  \\    /   O peration     | Version:  2112                                  |
|   \\  /    A nd           | Website:  www.openfoam.com                      |
|    \\/     M anipulation  |                                                 |
\*---------------------------------------------------------------------------*/
Build  : d44c8318f0-20220111 OPENFOAM=2112 version=v2112
Arch   : "LSB;label=32;scalar=64"
Exec   : icoFoam -parallel
Date   : Feb 03 2022
Time   : 20:47:56
Host   : hkn1103.localdomain
PID    : 2630067
I/O    : uncollated
Case   : /hkfs/home/project/hk-project-test-fine/eq4036/data/code/ogl_labbook/lidDrivenCavity/resolution/Variation_mesh/300/Variation_matrix_solver/CG_NoPrecond_DefaultOF/Variation_mpiRank/76.0/base
nProcs : 76
Hosts  :
(
    (hkn1103.localdomain 76)
)
Pstream initialized with:
    floatTransfer      : 0
    nProcsSimpleSum    : 0
    commsType          : nonBlocking
    polling iterations : 0
trapFpe: Floating point exception trapping enabled (FOAM_SIGFPE).
fileModificationChecking : Monitoring run-time modified files using timeStampMaster (fileModificationSkew 5, maxFileModificationPolls 20)
allowSystemOperations : Allowing user-supplied system call operations

// * * * * * * * * * * * * * * * * * * * * * * * * * * * * * * * * * * * * * //
Create time

Create mesh for time = 0


PISO: Operating solver in PISO mode

Reading transportProperties

Reading field p

Reading field U

Reading/calculating face flux field phi


Starting time loop

Time = 3.33333e-05

Courant Number mean: 0 max: 0
DILUPBiCGStab:  Solving for Ux, Initial residual = 1, Final residual = 0.000816828, No Iterations 5
DILUPBiCGStab:  Solving for Uy:  solution singularity
DILUPBiCGStab:  Solving for Uz:  solution singularity
linear solve U 614209
nonePCG:  Solving for p, Initial residual = 1, Final residual = 9.81106e-05, No Iterations 2344
linear solve p 47105547
time step continuity errors : sum local = 3.66907e-10, global = 8.03485e-25, cumulative = 8.03485e-25
nonePCG:  Solving for p, Initial residual = 0.691235, Final residual = 9.9749e-05, No Iterations 2281
linear solve p 45293429
time step continuity errors : sum local = 5.15011e-10, global = -1.07521e-22, cumulative = -1.06718e-22
ExecutionTime = 95.22 s  ClockTime = 96 s

Time = 6.66667e-05

Courant Number mean: 0.00132163 max: 0.071564
DILUPBiCGStab:  Solving for Ux, Initial residual = 0.172376, Final residual = 0.000559517, No Iterations 5
DILUPBiCGStab:  Solving for Uy, Initial residual = 0.340961, Final residual = 0.000569396, No Iterations 5
DILUPBiCGStab:  Solving for Uz, Initial residual = 0.969556, Final residual = 0.00225083, No Iterations 5
linear solve U 1232595
nonePCG:  Solving for p, Initial residual = 0.607831, Final residual = 9.92463e-05, No Iterations 2262
linear solve p 45087187
time step continuity errors : sum local = 5.34944e-10, global = -1.70258e-22, cumulative = -2.76976e-22
nonePCG:  Solving for p, Initial residual = 0.529027, Final residual = 9.9949e-05, No Iterations 2247
linear solve p 44279137
time step continuity errors : sum local = 5.51398e-10, global = -1.42119e-22, cumulative = -4.19095e-22
ExecutionTime = 186.39 s  ClockTime = 187 s

Time = 0.0001

Courant Number mean: 0.00202459 max: 0.084834
DILUPBiCGStab:  Solving for Ux, Initial residual = 0.071721, Final residual = 0.00016363, No Iterations 5
DILUPBiCGStab:  Solving for Uy, Initial residual = 0.137192, Final residual = 0.000198992, No Iterations 5
DILUPBiCGStab:  Solving for Uz, Initial residual = 0.188746, Final residual = 0.000515164, No Iterations 5
linear solve U 1242644
nonePCG:  Solving for p, Initial residual = 0.42755, Final residual = 9.84336e-05, No Iterations 2220
linear solve p 44208184
time step continuity errors : sum local = 3.75463e-10, global = -1.25302e-22, cumulative = -5.44397e-22
nonePCG:  Solving for p, Initial residual = 0.373153, Final residual = 9.85472e-05, No Iterations 2217
linear solve p 44472947
time step continuity errors : sum local = 3.68186e-10, global = -6.9811e-23, cumulative = -6.14208e-22
ExecutionTime = 276.87 s  ClockTime = 278 s

Time = 0.000133333

Courant Number mean: 0.00251144 max: 0.0887254
DILUPBiCGStab:  Solving for Ux, Initial residual = 0.0467025, Final residual = 7.03017e-05, No Iterations 5
DILUPBiCGStab:  Solving for Uy, Initial residual = 0.086239, Final residual = 0.00011747, No Iterations 5
DILUPBiCGStab:  Solving for Uz, Initial residual = 0.118343, Final residual = 0.000275518, No Iterations 5
linear solve U 1236854
nonePCG:  Solving for p, Initial residual = 0.218256, Final residual = 9.95792e-05, No Iterations 2121
linear solve p 42083190
time step continuity errors : sum local = 3.40193e-10, global = -1.61163e-22, cumulative = -7.75371e-22
nonePCG:  Solving for p, Initial residual = 0.179341, Final residual = 9.99376e-05, No Iterations 2118
linear solve p 42573372
time step continuity errors : sum local = 3.44212e-10, global = -1.97184e-22, cumulative = -9.72555e-22
ExecutionTime = 363.34 s  ClockTime = 365 s

Time = 0.000166667

Courant Number mean: 0.00290278 max: 0.0905868
DILUPBiCGStab:  Solving for Ux, Initial residual = 0.0352459, Final residual = 4.34822e-05, No Iterations 5
DILUPBiCGStab:  Solving for Uy, Initial residual = 0.0624688, Final residual = 7.21867e-05, No Iterations 5
DILUPBiCGStab:  Solving for Uz, Initial residual = 0.0931366, Final residual = 0.000185909, No Iterations 5
linear solve U 1232731
nonePCG:  Solving for p, Initial residual = 0.127344, Final residual = 9.85505e-05, No Iterations 2109
linear solve p 41821741
time step continuity errors : sum local = 3.12297e-10, global = -2.0446e-22, cumulative = -1.17702e-21
nonePCG:  Solving for p, Initial residual = 0.106856, Final residual = 9.72741e-05, No Iterations 2107
linear solve p 41652117
time step continuity errors : sum local = 3.07755e-10, global = -3.15377e-22, cumulative = -1.49239e-21
ExecutionTime = 448.6 s  ClockTime = 451 s

End

Finalising parallel run
================================================================================
hash: f589a7e8ea871a7be9bcf319bcabd4ba
/*---------------------------------------------------------------------------*\
| =========                 |                                                 |
| \\      /  F ield         | OpenFOAM: The Open Source CFD Toolbox           |
|  \\    /   O peration     | Version:  2112                                  |
|   \\  /    A nd           | Website:  www.openfoam.com                      |
|    \\/     M anipulation  |                                                 |
\*---------------------------------------------------------------------------*/
Build  : d44c8318f0-20220111 OPENFOAM=2112 version=v2112
Arch   : "LSB;label=32;scalar=64"
Exec   : icoFoam -parallel
Date   : Feb 03 2022
Time   : 20:36:32
Host   : hkn1102.localdomain
PID    : 2647083
I/O    : uncollated
Case   : /hkfs/home/project/hk-project-test-fine/eq4036/data/code/ogl_labbook/lidDrivenCavity/resolution/Variation_mesh/400/Variation_matrix_solver/BiCGStab_NoPrecond_DefaultOF/Variation_mpiRank/76.0/base
nProcs : 76
Hosts  :
(
    (hkn1102.localdomain 76)
)
Pstream initialized with:
    floatTransfer      : 0
    nProcsSimpleSum    : 0
    commsType          : nonBlocking
    polling iterations : 0
trapFpe: Floating point exception trapping enabled (FOAM_SIGFPE).
fileModificationChecking : Monitoring run-time modified files using timeStampMaster (fileModificationSkew 5, maxFileModificationPolls 20)
allowSystemOperations : Allowing user-supplied system call operations

// * * * * * * * * * * * * * * * * * * * * * * * * * * * * * * * * * * * * * //
Create time

Create mesh for time = 0


PISO: Operating solver in PISO mode

Reading transportProperties

Reading field p

Reading field U

Reading/calculating face flux field phi


Starting time loop

Time = 2.5e-05

Courant Number mean: 0 max: 0
DILUPBiCGStab:  Solving for Ux, Initial residual = 1, Final residual = 0.00185268, No Iterations 5
DILUPBiCGStab:  Solving for Uy:  solution singularity
DILUPBiCGStab:  Solving for Uz:  solution singularity
linear solve U 1454414
nonePBiCGStab:  Solving for p, Initial residual = 1, Final residual = 9.67964e-05, No Iterations 2594
linear solve p 236633144
time step continuity errors : sum local = 4.76629e-10, global = 1.95814e-22, cumulative = 1.95814e-22
nonePBiCGStab:  Solving for p, Initial residual = 0.721316, Final residual = 8.1044e-05, No Iterations 1052
linear solve p 96081387
time step continuity errors : sum local = 3.95733e-10, global = -7.79101e-24, cumulative = 1.88023e-22
ExecutionTime = 338.74 s  ClockTime = 341 s

Time = 5e-05

Courant Number mean: 0.00116605 max: 0.0751689
DILUPBiCGStab:  Solving for Ux, Initial residual = 0.159884, Final residual = 0.00124994, No Iterations 5
DILUPBiCGStab:  Solving for Uy, Initial residual = 0.349123, Final residual = 0.00133398, No Iterations 5
DILUPBiCGStab:  Solving for Uz, Initial residual = 0.940754, Final residual = 0.00799793, No Iterations 5
linear solve U 2959644
nonePBiCGStab:  Solving for p, Initial residual = 0.680623, Final residual = 7.23289e-05, No Iterations 2514
linear solve p 229193038
time step continuity errors : sum local = 3.05414e-10, global = -1.90148e-23, cumulative = 1.69009e-22
nonePBiCGStab:  Solving for p, Initial residual = 0.607779, Final residual = 6.24603e-05, No Iterations 2790
linear solve p 254701145
time step continuity errors : sum local = 4.81496e-10, global = -2.46293e-23, cumulative = 1.44379e-22
ExecutionTime = 825.84 s  ClockTime = 830 s

Time = 7.5e-05

Courant Number mean: 0.00177936 max: 0.0870231
DILUPBiCGStab:  Solving for Ux, Initial residual = 0.0662369, Final residual = 0.000369303, No Iterations 5
DILUPBiCGStab:  Solving for Uy, Initial residual = 0.138351, Final residual = 0.000493591, No Iterations 5
DILUPBiCGStab:  Solving for Uz, Initial residual = 0.393855, Final residual = 0.00324504, No Iterations 5
linear solve U 2963610
nonePBiCGStab:  Solving for p, Initial residual = 0.569597, Final residual = 9.73689e-05, No Iterations 2669
linear solve p 243310689
time step continuity errors : sum local = 3.28315e-10, global = -8.17358e-24, cumulative = 1.36206e-22
nonePBiCGStab:  Solving for p, Initial residual = 0.515256, Final residual = 9.86764e-05, No Iterations 1037
linear solve p 94537100
time step continuity errors : sum local = 3.88e-10, global = 2.83103e-23, cumulative = 1.64516e-22
ExecutionTime = 1167.6 s  ClockTime = 1173 s

Time = 0.0001

Courant Number mean: 0.00220651 max: 0.0903231
DILUPBiCGStab:  Solving for Ux, Initial residual = 0.0436801, Final residual = 0.000146845, No Iterations 5
DILUPBiCGStab:  Solving for Uy, Initial residual = 0.0874382, Final residual = 0.000235686, No Iterations 5
DILUPBiCGStab:  Solving for Uz, Initial residual = 0.298762, Final residual = 0.00226437, No Iterations 5
linear solve U 2989662
nonePBiCGStab:  Solving for p, Initial residual = 0.339214, Final residual = 8.21758e-05, No Iterations 3211
linear solve p 292114207
time step continuity errors : sum local = 1.83511e-10, global = -3.24074e-23, cumulative = 1.32108e-22
nonePBiCGStab:  Solving for p, Initial residual = 0.285604, Final residual = 2.36789e-05, No Iterations 3126
linear solve p 285401544
time step continuity errors : sum local = 6.73879e-11, global = 2.99116e-23, cumulative = 1.6202e-22
ExecutionTime = 1748.03 s  ClockTime = 1756 s

Time = 0.000125

Courant Number mean: 0.00255222 max: 0.0919062
DILUPBiCGStab:  Solving for Ux, Initial residual = 0.033297, Final residual = 9.74328e-05, No Iterations 5
DILUPBiCGStab:  Solving for Uy, Initial residual = 0.0630506, Final residual = 0.000169873, No Iterations 5
DILUPBiCGStab:  Solving for Uz, Initial residual = 0.122286, Final residual = 0.000823751, No Iterations 5
linear solve U 2952632
nonePBiCGStab:  Solving for p, Initial residual = 0.230453, Final residual = 9.35266e-05, No Iterations 884
linear solve p 81146991
time step continuity errors : sum local = 2.51252e-10, global = -6.55541e-24, cumulative = 1.55465e-22
nonePBiCGStab:  Solving for p, Initial residual = 0.19754, Final residual = 8.33563e-05, No Iterations 937
linear solve p 85760831
time step continuity errors : sum local = 1.73656e-10, global = 1.2356e-23, cumulative = 1.67821e-22
ExecutionTime = 1919.49 s  ClockTime = 1928 s

End

Finalising parallel run
================================================================================
hash: 24a89d5af26c80ac2a3bd20af1b2a943
/*---------------------------------------------------------------------------*\
| =========                 |                                                 |
| \\      /  F ield         | OpenFOAM: The Open Source CFD Toolbox           |
|  \\    /   O peration     | Version:  2112                                  |
|   \\  /    A nd           | Website:  www.openfoam.com                      |
|    \\/     M anipulation  |                                                 |
\*---------------------------------------------------------------------------*/
Build  : d44c8318f0-20220111 OPENFOAM=2112 version=v2112
Arch   : "LSB;label=32;scalar=64"
Exec   : icoFoam -parallel
Date   : Feb 03 2022
Time   : 20:36:23
Host   : hkn0149.localdomain
PID    : 4135277
I/O    : uncollated
Case   : /hkfs/home/project/hk-project-test-fine/eq4036/data/code/ogl_labbook/lidDrivenCavity/resolution/Variation_mesh/500/Variation_matrix_solver/BiCGStab_NoPrecond_DefaultOF/Variation_mpiRank/76.0/base
nProcs : 76
Hosts  :
(
    (hkn0149.localdomain 76)
)
Pstream initialized with:
    floatTransfer      : 0
    nProcsSimpleSum    : 0
    commsType          : nonBlocking
    polling iterations : 0
trapFpe: Floating point exception trapping enabled (FOAM_SIGFPE).
fileModificationChecking : Monitoring run-time modified files using timeStampMaster (fileModificationSkew 5, maxFileModificationPolls 20)
allowSystemOperations : Allowing user-supplied system call operations

// * * * * * * * * * * * * * * * * * * * * * * * * * * * * * * * * * * * * * //
Create time

Create mesh for time = 0


PISO: Operating solver in PISO mode

Reading transportProperties

Reading field p

Reading field U

Reading/calculating face flux field phi


Starting time loop

Time = 2e-05

Courant Number mean: 0 max: 0
DILUPBiCGStab:  Solving for Ux, Initial residual = 1, Final residual = 0.00302202, No Iterations 5
DILUPBiCGStab:  Solving for Uy:  solution singularity
DILUPBiCGStab:  Solving for Uz:  solution singularity
linear solve U 2951800
nonePBiCGStab:  Solving for p, Initial residual = 1, Final residual = 7.23148e-05, No Iterations 1411
linear solve p 251899504
time step continuity errors : sum local = 1.9013e-10, global = -1.8777e-23, cumulative = -1.8777e-23
nonePBiCGStab:  Solving for p, Initial residual = 0.742027, Final residual = 8.94638e-05, No Iterations 1342
linear solve p 238578433
time step continuity errors : sum local = 2.24086e-10, global = -2.66518e-23, cumulative = -4.54288e-23
ExecutionTime = 503.45 s  ClockTime = 506 s

Time = 4e-05

Courant Number mean: 0.00105341 max: 0.0776907
DILUPBiCGStab:  Solving for Ux, Initial residual = 0.150354, Final residual = 0.00203855, No Iterations 5
DILUPBiCGStab:  Solving for Uy, Initial residual = 0.356608, Final residual = 0.00258039, No Iterations 5
DILUPBiCGStab:  Solving for Uz, Initial residual = 0.942984, Final residual = 0.010007, No Iterations 5
linear solve U 6024452
nonePBiCGStab:  Solving for p, Initial residual = 0.730669, Final residual = 6.6069e-05, No Iterations 1238
linear solve p 221354542
time step continuity errors : sum local = 2.81211e-10, global = -1.00006e-23, cumulative = -5.54294e-23
nonePBiCGStab:  Solving for p, Initial residual = 0.665091, Final residual = 8.32945e-05, No Iterations 1398
linear solve p 249049053
time step continuity errors : sum local = 2.64621e-10, global = -3.57859e-23, cumulative = -9.12153e-23
ExecutionTime = 982.83 s  ClockTime = 988 s

Time = 6e-05

Courant Number mean: 0.0016045 max: 0.0884752
DILUPBiCGStab:  Solving for Ux, Initial residual = 0.0624547, Final residual = 0.000604071, No Iterations 5
DILUPBiCGStab:  Solving for Uy, Initial residual = 0.140816, Final residual = 0.000673416, No Iterations 5
DILUPBiCGStab:  Solving for Uz, Initial residual = 0.511319, Final residual = 0.00595067, No Iterations 5
linear solve U 6044322
nonePBiCGStab:  Solving for p, Initial residual = 0.666257, Final residual = 9.89515e-05, No Iterations 1177
linear solve p 209828912
time step continuity errors : sum local = 3.09508e-10, global = -3.51965e-23, cumulative = -1.26412e-22
nonePBiCGStab:  Solving for p, Initial residual = 0.616091, Final residual = 9.55562e-05, No Iterations 1308
linear solve p 233701369
time step continuity errors : sum local = 2.14481e-10, global = -1.43628e-22, cumulative = -2.70039e-22
ExecutionTime = 1435.32 s  ClockTime = 1442 s

Time = 8e-05

Courant Number mean: 0.00199015 max: 0.0913876
DILUPBiCGStab:  Solving for Ux, Initial residual = 0.0414904, Final residual = 0.000304832, No Iterations 5
DILUPBiCGStab:  Solving for Uy, Initial residual = 0.0891999, Final residual = 0.000413074, No Iterations 5
DILUPBiCGStab:  Solving for Uz, Initial residual = 0.25911, Final residual = 0.00282553, No Iterations 5
linear solve U 6039175
nonePBiCGStab:  Solving for p, Initial residual = 0.45311, Final residual = 8.88016e-05, No Iterations 1246
linear solve p 222342102
time step continuity errors : sum local = 2.98384e-10, global = -4.07469e-23, cumulative = -3.10786e-22
nonePBiCGStab:  Solving for p, Initial residual = 0.392423, Final residual = 6.78045e-05, No Iterations 1260
linear solve p 224623857
time step continuity errors : sum local = 1.45454e-10, global = -5.99706e-25, cumulative = -3.11386e-22
ExecutionTime = 1891.38 s  ClockTime = 1900 s

Time = 0.0001

Courant Number mean: 0.00230394 max: 0.0927848
DILUPBiCGStab:  Solving for Ux, Initial residual = 0.0318548, Final residual = 0.000176175, No Iterations 5
DILUPBiCGStab:  Solving for Uy, Initial residual = 0.0638688, Final residual = 0.000264744, No Iterations 5
DILUPBiCGStab:  Solving for Uz, Initial residual = 0.1942, Final residual = 0.0009199, No Iterations 5
linear solve U 6033610
nonePBiCGStab:  Solving for p, Initial residual = 0.354136, Final residual = 9.6443e-05, No Iterations 2358
linear solve p 419237519
time step continuity errors : sum local = 2.6644e-10, global = -7.50087e-23, cumulative = -3.86395e-22
nonePBiCGStab:  Solving for p, Initial residual = 0.309397, Final residual = 9.94207e-05, No Iterations 1228
linear solve p 218978759
time step continuity errors : sum local = 1.76633e-10, global = -6.969e-23, cumulative = -4.56085e-22
ExecutionTime = 2537.77 s  ClockTime = 2549 s

End

Finalising parallel run
================================================================================
hash: 90768961ab32f2d6468d3c061d0469b7
/*---------------------------------------------------------------------------*\
| =========                 |                                                 |
| \\      /  F ield         | OpenFOAM: The Open Source CFD Toolbox           |
|  \\    /   O peration     | Version:  2112                                  |
|   \\  /    A nd           | Website:  www.openfoam.com                      |
|    \\/     M anipulation  |                                                 |
\*---------------------------------------------------------------------------*/
Build  : d44c8318f0-20220111 OPENFOAM=2112 version=v2112
Arch   : "LSB;label=32;scalar=64"
Exec   : icoFoam -parallel
Date   : Feb 03 2022
Time   : 21:08:45
Host   : hkn1102.localdomain
PID    : 2650592
I/O    : uncollated
Case   : /hkfs/home/project/hk-project-test-fine/eq4036/data/code/ogl_labbook/lidDrivenCavity/resolution/Variation_mesh/400/Variation_matrix_solver/CG_NoPrecond_DefaultOF/Variation_mpiRank/76.0/base
nProcs : 76
Hosts  :
(
    (hkn1102.localdomain 76)
)
Pstream initialized with:
    floatTransfer      : 0
    nProcsSimpleSum    : 0
    commsType          : nonBlocking
    polling iterations : 0
trapFpe: Floating point exception trapping enabled (FOAM_SIGFPE).
fileModificationChecking : Monitoring run-time modified files using timeStampMaster (fileModificationSkew 5, maxFileModificationPolls 20)
allowSystemOperations : Allowing user-supplied system call operations

// * * * * * * * * * * * * * * * * * * * * * * * * * * * * * * * * * * * * * //
Create time

Create mesh for time = 0


PISO: Operating solver in PISO mode

Reading transportProperties

Reading field p

Reading field U

Reading/calculating face flux field phi


Starting time loop

Time = 2.5e-05

Courant Number mean: 0 max: 0
DILUPBiCGStab:  Solving for Ux, Initial residual = 1, Final residual = 0.00185268, No Iterations 5
DILUPBiCGStab:  Solving for Uy:  solution singularity
DILUPBiCGStab:  Solving for Uz:  solution singularity
linear solve U 1463942
nonePCG:  Solving for p, Initial residual = 1, Final residual = 9.95023e-05, No Iterations 3149
linear solve p 152428537
time step continuity errors : sum local = 2.48244e-10, global = 1.59863e-22, cumulative = 1.59863e-22
nonePCG:  Solving for p, Initial residual = 0.721097, Final residual = 9.92487e-05, No Iterations 3125
linear solve p 151581187
time step continuity errors : sum local = 3.31623e-10, global = 1.32901e-23, cumulative = 1.73153e-22
ExecutionTime = 310.27 s  ClockTime = 312 s

Time = 5e-05

Courant Number mean: 0.00116605 max: 0.0751689
DILUPBiCGStab:  Solving for Ux, Initial residual = 0.159884, Final residual = 0.0012498, No Iterations 5
DILUPBiCGStab:  Solving for Uy, Initial residual = 0.349009, Final residual = 0.00133011, No Iterations 5
DILUPBiCGStab:  Solving for Uz, Initial residual = 0.938927, Final residual = 0.0054198, No Iterations 5
linear solve U 2972512
nonePCG:  Solving for p, Initial residual = 0.67982, Final residual = 9.9367e-05, No Iterations 3057
linear solve p 148585534
time step continuity errors : sum local = 3.76761e-10, global = -4.06163e-23, cumulative = 1.32536e-22
nonePCG:  Solving for p, Initial residual = 0.60706, Final residual = 9.92243e-05, No Iterations 3049
linear solve p 147835372
time step continuity errors : sum local = 3.82832e-10, global = 2.24475e-23, cumulative = 1.54984e-22
ExecutionTime = 610.72 s  ClockTime = 613 s

Time = 7.5e-05

Courant Number mean: 0.00177934 max: 0.0870234
DILUPBiCGStab:  Solving for Ux, Initial residual = 0.0662127, Final residual = 0.000369131, No Iterations 5
DILUPBiCGStab:  Solving for Uy, Initial residual = 0.138326, Final residual = 0.000492592, No Iterations 5
DILUPBiCGStab:  Solving for Uz, Initial residual = 0.344307, Final residual = 0.00229334, No Iterations 5
linear solve U 2954389
nonePCG:  Solving for p, Initial residual = 0.56856, Final residual = 9.86747e-05, No Iterations 2987
linear solve p 145101186
time step continuity errors : sum local = 2.58436e-10, global = 2.49209e-23, cumulative = 1.79905e-22
nonePCG:  Solving for p, Initial residual = 0.513979, Final residual = 9.99678e-05, No Iterations 2982
linear solve p 144453395
time step continuity errors : sum local = 2.5587e-10, global = 1.14028e-24, cumulative = 1.81045e-22
ExecutionTime = 904.27 s  ClockTime = 908 s

Time = 0.0001

Courant Number mean: 0.00220651 max: 0.0903231
DILUPBiCGStab:  Solving for Ux, Initial residual = 0.0437401, Final residual = 0.000146626, No Iterations 5
DILUPBiCGStab:  Solving for Uy, Initial residual = 0.0872876, Final residual = 0.000231739, No Iterations 5
DILUPBiCGStab:  Solving for Uz, Initial residual = 0.137679, Final residual = 0.000793797, No Iterations 5
linear solve U 2954674
nonePCG:  Solving for p, Initial residual = 0.336405, Final residual = 9.99986e-05, No Iterations 1495
linear solve p 72917420
time step continuity errors : sum local = 2.45093e-10, global = -7.13017e-23, cumulative = 1.09743e-22
nonePCG:  Solving for p, Initial residual = 0.282768, Final residual = 9.99883e-05, No Iterations 1453
linear solve p 70924009
time step continuity errors : sum local = 2.26517e-10, global = 4.79464e-23, cumulative = 1.5769e-22
ExecutionTime = 1052.73 s  ClockTime = 1057 s

Time = 0.000125

Courant Number mean: 0.00255221 max: 0.0919057
DILUPBiCGStab:  Solving for Ux, Initial residual = 0.033296, Final residual = 9.73704e-05, No Iterations 5
DILUPBiCGStab:  Solving for Uy, Initial residual = 0.0630527, Final residual = 0.000169254, No Iterations 5
DILUPBiCGStab:  Solving for Uz, Initial residual = 0.0931106, Final residual = 0.000535954, No Iterations 5
linear solve U 2952865
nonePCG:  Solving for p, Initial residual = 0.228738, Final residual = 9.98219e-05, No Iterations 1393
linear solve p 67447713
time step continuity errors : sum local = 1.98604e-10, global = -1.09734e-23, cumulative = 1.46716e-22
nonePCG:  Solving for p, Initial residual = 0.196019, Final residual = 9.87261e-05, No Iterations 1387
linear solve p 67536877
time step continuity errors : sum local = 1.92172e-10, global = 6.46789e-23, cumulative = 2.11395e-22
ExecutionTime = 1192.39 s  ClockTime = 1197 s

End

Finalising parallel run
================================================================================
hash: 2a573ba3724aa99c8a5b7ac45c6fc82c
/*---------------------------------------------------------------------------*\
| =========                 |                                                 |
| \\      /  F ield         | OpenFOAM: The Open Source CFD Toolbox           |
|  \\    /   O peration     | Version:  2112                                  |
|   \\  /    A nd           | Website:  www.openfoam.com                      |
|    \\/     M anipulation  |                                                 |
\*---------------------------------------------------------------------------*/
Build  : d44c8318f0-20220111 OPENFOAM=2112 version=v2112
Arch   : "LSB;label=32;scalar=64"
Exec   : icoFoam -parallel
Date   : Feb 03 2022
Time   : 21:18:56
Host   : hkn0149.localdomain
PID    : 4139390
I/O    : uncollated
Case   : /hkfs/home/project/hk-project-test-fine/eq4036/data/code/ogl_labbook/lidDrivenCavity/resolution/Variation_mesh/500/Variation_matrix_solver/CG_NoPrecond_DefaultOF/Variation_mpiRank/76.0/base
nProcs : 76
Hosts  :
(
    (hkn0149.localdomain 76)
)
Pstream initialized with:
    floatTransfer      : 0
    nProcsSimpleSum    : 0
    commsType          : nonBlocking
    polling iterations : 0
trapFpe: Floating point exception trapping enabled (FOAM_SIGFPE).
fileModificationChecking : Monitoring run-time modified files using timeStampMaster (fileModificationSkew 5, maxFileModificationPolls 20)
allowSystemOperations : Allowing user-supplied system call operations

// * * * * * * * * * * * * * * * * * * * * * * * * * * * * * * * * * * * * * //
Create time

Create mesh for time = 0


PISO: Operating solver in PISO mode

Reading transportProperties

Reading field p

Reading field U

Reading/calculating face flux field phi


Starting time loop

Time = 2e-05

Courant Number mean: 0 max: 0
DILUPBiCGStab:  Solving for Ux, Initial residual = 1, Final residual = 0.00302202, No Iterations 5
DILUPBiCGStab:  Solving for Uy:  solution singularity
DILUPBiCGStab:  Solving for Uz:  solution singularity
linear solve U 2926238
nonePCG:  Solving for p, Initial residual = 1, Final residual = 9.87539e-05, No Iterations 3973
linear solve p 379037032
time step continuity errors : sum local = 1.78716e-10, global = -2.63061e-23, cumulative = -2.63061e-23
nonePCG:  Solving for p, Initial residual = 0.741934, Final residual = 9.99875e-05, No Iterations 3935
linear solve p 377441909
time step continuity errors : sum local = 2.37215e-10, global = -1.84362e-23, cumulative = -4.47423e-23
ExecutionTime = 768.6 s  ClockTime = 771 s

Time = 4e-05

Courant Number mean: 0.0010534 max: 0.0776907
DILUPBiCGStab:  Solving for Ux, Initial residual = 0.150318, Final residual = 0.00203771, No Iterations 5
DILUPBiCGStab:  Solving for Uy, Initial residual = 0.3566, Final residual = 0.0025796, No Iterations 5
DILUPBiCGStab:  Solving for Uz, Initial residual = 0.942193, Final residual = 0.0096383, No Iterations 5
linear solve U 6030711
nonePCG:  Solving for p, Initial residual = 0.730484, Final residual = 9.92731e-05, No Iterations 1966
linear solve p 187842330
time step continuity errors : sum local = 3.20462e-10, global = -4.81791e-23, cumulative = -9.29215e-23
nonePCG:  Solving for p, Initial residual = 0.664948, Final residual = 9.9529e-05, No Iterations 1944
linear solve p 185787863
time step continuity errors : sum local = 3.02975e-10, global = -1.00146e-23, cumulative = -1.02936e-22
ExecutionTime = 1151.6 s  ClockTime = 1156 s

Time = 6e-05

Courant Number mean: 0.00160449 max: 0.0884751
DILUPBiCGStab:  Solving for Ux, Initial residual = 0.0624742, Final residual = 0.000604346, No Iterations 5
DILUPBiCGStab:  Solving for Uy, Initial residual = 0.140578, Final residual = 0.000670638, No Iterations 5
DILUPBiCGStab:  Solving for Uz, Initial residual = 0.496064, Final residual = 0.005774, No Iterations 5
linear solve U 6045421
nonePCG:  Solving for p, Initial residual = 0.665796, Final residual = 9.96362e-05, No Iterations 3591
linear solve p 342779385
time step continuity errors : sum local = 2.04475e-10, global = -5.62418e-23, cumulative = -1.59178e-22
nonePCG:  Solving for p, Initial residual = 0.615658, Final residual = 9.98295e-05, No Iterations 3587
linear solve p 343664406
time step continuity errors : sum local = 1.99963e-10, global = -4.97793e-23, cumulative = -2.08957e-22
ExecutionTime = 1846.14 s  ClockTime = 1853 s

Time = 8e-05

Courant Number mean: 0.00199014 max: 0.0913878
DILUPBiCGStab:  Solving for Ux, Initial residual = 0.0415692, Final residual = 0.000305667, No Iterations 5
DILUPBiCGStab:  Solving for Uy, Initial residual = 0.0888845, Final residual = 0.000402199, No Iterations 5
DILUPBiCGStab:  Solving for Uz, Initial residual = 0.169079, Final residual = 0.00162551, No Iterations 5
linear solve U 6045661
nonePCG:  Solving for p, Initial residual = 0.451003, Final residual = 9.87131e-05, No Iterations 1865
linear solve p 178631350
time step continuity errors : sum local = 1.8137e-10, global = -1.5096e-23, cumulative = -2.24053e-22
nonePCG:  Solving for p, Initial residual = 0.390346, Final residual = 9.85036e-05, No Iterations 1828
linear solve p 174964599
time step continuity errors : sum local = 1.71707e-10, global = -2.13645e-23, cumulative = -2.45418e-22
ExecutionTime = 2209.21 s  ClockTime = 2218 s

Time = 0.0001

Courant Number mean: 0.00230393 max: 0.0927853
DILUPBiCGStab:  Solving for Ux, Initial residual = 0.0318725, Final residual = 0.000176598, No Iterations 5
DILUPBiCGStab:  Solving for Uy, Initial residual = 0.0637358, Final residual = 0.000247904, No Iterations 5
DILUPBiCGStab:  Solving for Uz, Initial residual = 0.0997048, Final residual = 0.000976415, No Iterations 5
linear solve U 6047172
nonePCG:  Solving for p, Initial residual = 0.351157, Final residual = 9.8825e-05, No Iterations 1829
linear solve p 175365520
time step continuity errors : sum local = 1.50234e-10, global = -1.34692e-22, cumulative = -3.8011e-22
nonePCG:  Solving for p, Initial residual = 0.306569, Final residual = 9.9525e-05, No Iterations 1791
linear solve p 171209069
time step continuity errors : sum local = 1.38738e-10, global = -1.28121e-22, cumulative = -5.08231e-22
ExecutionTime = 2565.28 s  ClockTime = 2575 s

End

Finalising parallel run
================================================================================
