hash: 16cd7e4decc74665d3e7444cee4386ab
/*---------------------------------------------------------------------------*\
| =========                 |                                                 |
| \\      /  F ield         | OpenFOAM: The Open Source CFD Toolbox           |
|  \\    /   O peration     | Version:  v2106                                 |
|   \\  /    A nd           | Website:  www.openfoam.com                      |
|    \\/     M anipulation  |                                                 |
\*---------------------------------------------------------------------------*/
Build  : f815a12bba-20210902 OPENFOAM=2106
Arch   : "LSB;label=32;scalar=64"
Exec   : simpleFoam -parallel
Date   : Mar 28 2022
Time   : 14:33:31
Host   : nla-gpu2.ianm.kit.edu
PID    : 159483
I/O    : uncollated
Case   : /home/greole/data/code/ogl_labbook/motorcycle/Variation_mesh/Small/Variation_matrix_solver/CG_ISAI_HIP/Variation_mpiRank_gko/4/base
nProcs : 4
Hosts  :
(
    (nla-gpu2.ianm.kit.edu 4)
)
Pstream initialized with:
    floatTransfer      : 0
    nProcsSimpleSum    : 0
    commsType          : nonBlocking
    polling iterations : 0
trapFpe: Floating point exception trapping enabled (FOAM_SIGFPE).
fileModificationChecking : Monitoring run-time modified files using timeStampMaster (fileModificationSkew 5, maxFileModificationPolls 20)
allowSystemOperations : Allowing user-supplied system call operations

// * * * * * * * * * * * * * * * * * * * * * * * * * * * * * * * * * * * * * //
Create time

Create mesh for time = 0


SIMPLE: no convergence criteria found. Calculations will run for 3 steps.

Reading field p

Reading field U

Reading/calculating face flux field phi

Selecting incompressible transport model Newtonian
Selecting turbulence model type RAS
Selecting RAS turbulence model kOmegaSST
Selecting patchDistMethod meshWave
RAS
{
    RASModel        kOmegaSST;
    turbulence      on;
    printCoeffs     on;
    alphaK1         0.85;
    alphaK2         1;
    alphaOmega1     0.5;
    alphaOmega2     0.856;
    gamma1          0.555555555556;
    gamma2          0.44;
    beta1           0.075;
    beta2           0.0828;
    betaStar        0.09;
    a1              0.31;
    b1              1;
    c1              10;
    F3              false;
    decayControl    false;
    kInf            0;
    omegaInf        0;
}

No MRF models present

No finite volume options present

Starting time loop

Time = 1

DILUPBiCGStab:  Solving for Ux, Initial residual = 0.0295513316773, Final residual = 0.00089987763124, No Iterations 4
DILUPBiCGStab:  Solving for Uy, Initial residual = 0.359653502429, Final residual = 0.0262484100724, No Iterations 3
DILUPBiCGStab:  Solving for Uz, Initial residual = 0.260954352602, Final residual = 0.0110134059938, No Iterations 3
linear solve U 1672722
[OGL LOG][Proc: 0]global_index_init : 13278 mu s
[OGL LOG][Proc: 0]global_index_init : 2 mu s
[OGL LOG][Proc: 0]init_host_sparsity_pattern : 22098261 mu s
 IS SYMMETRIC
 IS SYMMETRIC
 IS SYMMETRIC
 IS SYMMETRIC
[OGL LOG][Proc: 0]update_host_matrix_data : 80277 mu s
[OGL LOG][Proc: 0]convert_coo_to_csr : 502025 mu s
[OGL LOG][Proc: 0]gather_initGuess : 8 mu s
[OGL LOG][Proc: 0]gather_RHS : 0 mu s
[OGL LOG][Proc: 0]gather_global_matrix : 0 mu s
[OGL LOG][Proc: 0]init_precond : 176172 mu s
[OGL LOG][Proc: 0]generate_solver : 11 mu s
[OGL LOG][Proc: 0]solve : 2465393 mu s
ISAIhipGKOCG:  Solving for p, Initial residual = 1, Final residual = 2.61270177707, No Iterations 1001
linear solve p 36067390
time step continuity errors : sum local = 0.214957489815, global = 0.00109708316889, cumulative = 0.00109708316889
DILUPBiCGStab:  Solving for omega, Initial residual = 0.0024718544855, Final residual = 6.16405119145e-05, No Iterations 1
linear solve omega 299537
bounding omega, min: -67511.3126912 max: 2809464.71271 average: 2505.72422754
DILUPBiCGStab:  Solving for k, Initial residual = 0.999999998499, Final residual = 0.0349060807799, No Iterations 1
linear solve k 239576
ExecutionTime = 68.05 s  ClockTime = 68 s

Time = 2

DILUPBiCGStab:  Solving for Ux, Initial residual = 0.0211251363933, Final residual = 0.00175122143792, No Iterations 3
DILUPBiCGStab:  Solving for Uy, Initial residual = 0.29242546588, Final residual = 0.0213026842168, No Iterations 3
DILUPBiCGStab:  Solving for Uz, Initial residual = 0.17383525766, Final residual = 0.0169526556001, No Iterations 2
linear solve U 1296187
[OGL LOG][Proc: 0]global_index_init : 15 mu s
[OGL LOG][Proc: 0]global_index_init : 1 mu s
 IS SYMMETRIC
 IS SYMMETRIC
 IS SYMMETRIC
 IS SYMMETRIC
[OGL LOG][Proc: 0]update_host_matrix_data : 34964 mu s
[OGL LOG][Proc: 0]gather_initGuess : 2 mu s
[OGL LOG][Proc: 0]gather_RHS : 0 mu s
[OGL LOG][Proc: 0]gather_global_matrix : 0 mu s
[OGL LOG][Proc: 0]init_precond : 139647 mu s
[OGL LOG][Proc: 0]generate_solver : 1 mu s
[OGL LOG][Proc: 0]solve : 2193745 mu s
ISAIhipGKOCG:  Solving for p, Initial residual = 1, Final residual = 1.15324484736, No Iterations 1001
linear solve p 2995597
time step continuity errors : sum local = 0.49519452666, global = 0.00160898067154, cumulative = 0.00270606384043
DILUPBiCGStab:  Solving for omega, Initial residual = 0.999936490704, Final residual = 0.0212026899535, No Iterations 1
linear solve omega 290120
bounding omega, min: -527.452349412 max: 4.59553082976e+15 average: 1837534630.28
DILUPBiCGStab:  Solving for k, Initial residual = 0.660341549081, Final residual = 1.38367378695e-06, No Iterations 1
linear solve k 168046
ExecutionTime = 76.83 s  ClockTime = 77 s

Time = 3

DILUPBiCGStab:  Solving for Ux, Initial residual = 0.964396281186, Final residual = 0.0820861033115, No Iterations 8
DILUPBiCGStab:  Solving for Uy, Initial residual = 0.967847878347, Final residual = 0.0652490769912, No Iterations 10
DILUPBiCGStab:  Solving for Uz, Initial residual = 0.988901643663, Final residual = 0.08721604897, No Iterations 7
linear solve U 3729495
[OGL LOG][Proc: 0]global_index_init : 31 mu s
[OGL LOG][Proc: 0]global_index_init : 3 mu s
 IS SYMMETRIC
 IS SYMMETRIC
 IS SYMMETRIC
 IS SYMMETRIC
[OGL LOG][Proc: 0]update_host_matrix_data : 34890 mu s
[OGL LOG][Proc: 0]gather_initGuess : 1 mu s
[OGL LOG][Proc: 0]gather_RHS : 0 mu s
[OGL LOG][Proc: 0]gather_global_matrix : 0 mu s
[OGL LOG][Proc: 0]init_precond : 139967 mu s
[OGL LOG][Proc: 0]generate_solver : 1 mu s
[OGL LOG][Proc: 0]solve : 2200439 mu s
ISAIhipGKOCG:  Solving for p, Initial residual = 1, Final residual = 5.33441501798, No Iterations 1001
linear solve p 2995710
time step continuity errors : sum local = 132343.814511, global = 39.5992625639, cumulative = 39.6019686277
DILUPBiCGStab:  Solving for omega, Initial residual = 0.538460069031, Final residual = 3.35861515189e-09, No Iterations 1
linear solve omega 224809
DILUPBiCGStab:  Solving for k, Initial residual = 0.244036553054, Final residual = 0.0010689131647, No Iterations 1
linear solve k 242332
ExecutionTime = 87.99 s  ClockTime = 88 s

End

Finalising parallel run
================================================================================
hash: ba2e25ea781d05e6809cbe4906077159
/*---------------------------------------------------------------------------*\
| =========                 |                                                 |
| \\      /  F ield         | OpenFOAM: The Open Source CFD Toolbox           |
|  \\    /   O peration     | Version:  v2106                                 |
|   \\  /    A nd           | Website:  www.openfoam.com                      |
|    \\/     M anipulation  |                                                 |
\*---------------------------------------------------------------------------*/
Build  : f815a12bba-20210902 OPENFOAM=2106
Arch   : "LSB;label=32;scalar=64"
Exec   : simpleFoam -parallel
Date   : Mar 28 2022
Time   : 14:35:00
Host   : nla-gpu2.ianm.kit.edu
PID    : 159510
I/O    : uncollated
Case   : /home/greole/data/code/ogl_labbook/motorcycle/Variation_mesh/Small/Variation_matrix_solver/CG_ISAI_HIP/Variation_mpiRank_gko/5/base
nProcs : 5
Hosts  :
(
    (nla-gpu2.ianm.kit.edu 5)
)
Pstream initialized with:
    floatTransfer      : 0
    nProcsSimpleSum    : 0
    commsType          : nonBlocking
    polling iterations : 0
trapFpe: Floating point exception trapping enabled (FOAM_SIGFPE).
fileModificationChecking : Monitoring run-time modified files using timeStampMaster (fileModificationSkew 5, maxFileModificationPolls 20)
allowSystemOperations : Allowing user-supplied system call operations

// * * * * * * * * * * * * * * * * * * * * * * * * * * * * * * * * * * * * * //
Create time

Create mesh for time = 0


SIMPLE: no convergence criteria found. Calculations will run for 3 steps.

Reading field p

Reading field U

Reading/calculating face flux field phi

Selecting incompressible transport model Newtonian
Selecting turbulence model type RAS
Selecting RAS turbulence model kOmegaSST
Selecting patchDistMethod meshWave
RAS
{
    RASModel        kOmegaSST;
    turbulence      on;
    printCoeffs     on;
    alphaK1         0.85;
    alphaK2         1;
    alphaOmega1     0.5;
    alphaOmega2     0.856;
    gamma1          0.555555555556;
    gamma2          0.44;
    beta1           0.075;
    beta2           0.0828;
    betaStar        0.09;
    a1              0.31;
    b1              1;
    c1              10;
    F3              false;
    decayControl    false;
    kInf            0;
    omegaInf        0;
}

No MRF models present

No finite volume options present

Starting time loop

Time = 1

DILUPBiCGStab:  Solving for Ux, Initial residual = 0.0295513316615, Final residual = 0.00222848408214, No Iterations 3
DILUPBiCGStab:  Solving for Uy, Initial residual = 0.359653502392, Final residual = 0.0102520325733, No Iterations 4
DILUPBiCGStab:  Solving for Uz, Initial residual = 0.260954352431, Final residual = 0.0113904832405, No Iterations 3
linear solve U 1383568
[OGL LOG][Proc: 0]global_index_init : 3956 mu s
[OGL LOG][Proc: 0]global_index_init : 3 mu s
[OGL LOG][Proc: 0]init_host_sparsity_pattern : 24114172 mu s
 IS SYMMETRIC
 IS SYMMETRIC
 IS SYMMETRIC
 IS SYMMETRIC
 IS SYMMETRIC
[OGL LOG][Proc: 0]update_host_matrix_data : 73264 mu s
[OGL LOG][Proc: 0]convert_coo_to_csr : 534524 mu s
[OGL LOG][Proc: 0]gather_initGuess : 9 mu s
[OGL LOG][Proc: 0]gather_RHS : 0 mu s
[OGL LOG][Proc: 0]gather_global_matrix : 0 mu s
[OGL LOG][Proc: 0]init_precond : 149269 mu s
[OGL LOG][Proc: 0]generate_solver : 12 mu s
[OGL LOG][Proc: 0]solve : 1860823 mu s
ISAIhipGKOCG:  Solving for p, Initial residual = 1, Final residual = 2.62286080966, No Iterations 1001
linear solve p 29390230
time step continuity errors : sum local = 0.209803133211, global = 0.00109443588869, cumulative = 0.00109443588869
DILUPBiCGStab:  Solving for omega, Initial residual = 0.00247052934121, Final residual = 6.12805436479e-05, No Iterations 1
linear solve omega 206881
bounding omega, min: -67442.1297306 max: 2809464.71271 average: 2506.02967326
DILUPBiCGStab:  Solving for k, Initial residual = 0.999999998673, Final residual = 0.0359460234329, No Iterations 1
linear solve k 185319
ExecutionTime = 55.86 s  ClockTime = 56 s

Time = 2

DILUPBiCGStab:  Solving for Ux, Initial residual = 0.0209029434566, Final residual = 0.00163061640635, No Iterations 3
DILUPBiCGStab:  Solving for Uy, Initial residual = 0.290059790242, Final residual = 0.0188015703458, No Iterations 3
DILUPBiCGStab:  Solving for Uz, Initial residual = 0.1714535613, Final residual = 0.0167094134068, No Iterations 2
linear solve U 1033092
[OGL LOG][Proc: 0]global_index_init : 42 mu s
[OGL LOG][Proc: 0]global_index_init : 4 mu s
 IS SYMMETRIC
 IS SYMMETRIC
 IS SYMMETRIC
 IS SYMMETRIC
 IS SYMMETRIC
[OGL LOG][Proc: 0]update_host_matrix_data : 28899 mu s
[OGL LOG][Proc: 0]gather_initGuess : 1 mu s
[OGL LOG][Proc: 0]gather_RHS : 0 mu s
[OGL LOG][Proc: 0]gather_global_matrix : 0 mu s
[OGL LOG][Proc: 0]init_precond : 111121 mu s
[OGL LOG][Proc: 0]generate_solver : 1 mu s
[OGL LOG][Proc: 0]solve : 1585791 mu s
ISAIhipGKOCG:  Solving for p, Initial residual = 1, Final residual = 1.05841528483, No Iterations 1001
linear solve p 2257913
time step continuity errors : sum local = 0.453363051099, global = 0.00172805810971, cumulative = 0.0028224939984
DILUPBiCGStab:  Solving for omega, Initial residual = 0.999929970467, Final residual = 0.0471182094155, No Iterations 1
linear solve omega 205748
bounding omega, min: -542.855862292 max: 2.10968469702e+16 average: 5910104825.24
DILUPBiCGStab:  Solving for k, Initial residual = 0.62812213194, Final residual = 3.99901601672e-07, No Iterations 1
linear solve k 130328
ExecutionTime = 62.79 s  ClockTime = 63 s

Time = 3

DILUPBiCGStab:  Solving for Ux, Initial residual = 0.97071307209, Final residual = 0.0109708144048, No Iterations 11
DILUPBiCGStab:  Solving for Uy, Initial residual = 0.964670147792, Final residual = 0.0884895582152, No Iterations 9
DILUPBiCGStab:  Solving for Uz, Initial residual = 0.991235856999, Final residual = 0.0646615260236, No Iterations 8
linear solve U 3250880
[OGL LOG][Proc: 0]global_index_init : 18 mu s
[OGL LOG][Proc: 0]global_index_init : 3 mu s
 IS SYMMETRIC
 IS SYMMETRIC
 IS SYMMETRIC
 IS SYMMETRIC
 IS SYMMETRIC
[OGL LOG][Proc: 0]update_host_matrix_data : 28813 mu s
[OGL LOG][Proc: 0]gather_initGuess : 1 mu s
[OGL LOG][Proc: 0]gather_RHS : 0 mu s
[OGL LOG][Proc: 0]gather_global_matrix : 0 mu s
[OGL LOG][Proc: 0]init_precond : 111061 mu s
[OGL LOG][Proc: 0]generate_solver : 1 mu s
[OGL LOG][Proc: 0]solve : 1590660 mu s
ISAIhipGKOCG:  Solving for p, Initial residual = 1, Final residual = 8.13577845247, No Iterations 1001
linear solve p 2259999
time step continuity errors : sum local = 158963.274896, global = -5.28846167407, cumulative = -5.28563918007
DILUPBiCGStab:  Solving for omega, Initial residual = 0.538461588822, Final residual = 2.09167095662e-14, No Iterations 1
linear solve omega 150333
bounding omega, min: -13903780.9497 max: 6.32905409115e+15 average: 1773101802.22
DILUPBiCGStab:  Solving for k, Initial residual = 0.253430663823, Final residual = 0.0222105050811, No Iterations 1
linear solve k 128328
ExecutionTime = 71.88 s  ClockTime = 72 s

End

Finalising parallel run
================================================================================
hash: c628eb9d549e7968acd75049323ce565
/*---------------------------------------------------------------------------*\
| =========                 |                                                 |
| \\      /  F ield         | OpenFOAM: The Open Source CFD Toolbox           |
|  \\    /   O peration     | Version:  v2106                                 |
|   \\  /    A nd           | Website:  www.openfoam.com                      |
|    \\/     M anipulation  |                                                 |
\*---------------------------------------------------------------------------*/
Build  : f815a12bba-20210902 OPENFOAM=2106
Arch   : "LSB;label=32;scalar=64"
Exec   : simpleFoam -parallel
Date   : Mar 28 2022
Time   : 14:36:14
Host   : nla-gpu2.ianm.kit.edu
PID    : 159550
I/O    : uncollated
Case   : /home/greole/data/code/ogl_labbook/motorcycle/Variation_mesh/Small/Variation_matrix_solver/CG_ISAI_HIP/Variation_mpiRank_gko/8/base
nProcs : 8
Hosts  :
(
    (nla-gpu2.ianm.kit.edu 8)
)
Pstream initialized with:
    floatTransfer      : 0
    nProcsSimpleSum    : 0
    commsType          : nonBlocking
    polling iterations : 0
trapFpe: Floating point exception trapping enabled (FOAM_SIGFPE).
fileModificationChecking : Monitoring run-time modified files using timeStampMaster (fileModificationSkew 5, maxFileModificationPolls 20)
allowSystemOperations : Allowing user-supplied system call operations

// * * * * * * * * * * * * * * * * * * * * * * * * * * * * * * * * * * * * * //
Create time

Create mesh for time = 0


SIMPLE: no convergence criteria found. Calculations will run for 3 steps.

Reading field p

Reading field U

Reading/calculating face flux field phi

Selecting incompressible transport model Newtonian
Selecting turbulence model type RAS
Selecting RAS turbulence model kOmegaSST
Selecting patchDistMethod meshWave
RAS
{
    RASModel        kOmegaSST;
    turbulence      on;
    printCoeffs     on;
    alphaK1         0.85;
    alphaK2         1;
    alphaOmega1     0.5;
    alphaOmega2     0.856;
    gamma1          0.555555555556;
    gamma2          0.44;
    beta1           0.075;
    beta2           0.0828;
    betaStar        0.09;
    a1              0.31;
    b1              1;
    c1              10;
    F3              false;
    decayControl    false;
    kInf            0;
    omegaInf        0;
}

No MRF models present

No finite volume options present

Starting time loop

Time = 1

DILUPBiCGStab:  Solving for Ux, Initial residual = 0.0295513317487, Final residual = 0.000966014686304, No Iterations 4
DILUPBiCGStab:  Solving for Uy, Initial residual = 0.359653504076, Final residual = 0.00927667248609, No Iterations 4
DILUPBiCGStab:  Solving for Uz, Initial residual = 0.260954353289, Final residual = 0.0260248446302, No Iterations 2
linear solve U 949522
[OGL LOG][Proc: 0]global_index_init : 9437 mu s
[OGL LOG][Proc: 0]global_index_init : 4 mu s
[OGL LOG][Proc: 0]init_host_sparsity_pattern : 19231153 mu s
 IS SYMMETRIC
 IS SYMMETRIC
 IS SYMMETRIC
 IS SYMMETRIC
 IS SYMMETRIC
 IS SYMMETRIC
 IS SYMMETRIC
 IS SYMMETRIC
[OGL LOG][Proc: 0]update_host_matrix_data : 59252 mu s
[OGL LOG][Proc: 0]convert_coo_to_csr : 581720 mu s
[OGL LOG][Proc: 0]gather_initGuess : 11 mu s
[OGL LOG][Proc: 0]gather_RHS : 0 mu s
[OGL LOG][Proc: 0]gather_global_matrix : 0 mu s
[OGL LOG][Proc: 0]init_precond : 108277 mu s
[OGL LOG][Proc: 0]generate_solver : 13 mu s
[OGL LOG][Proc: 0]solve : 1377255 mu s
ISAIhipGKOCG:  Solving for p, Initial residual = 1, Final residual = 2.64675865112, No Iterations 1001
linear solve p 22305528
time step continuity errors : sum local = 0.21241976723, global = 0.00113656223366, cumulative = 0.00113656223366
DILUPBiCGStab:  Solving for omega, Initial residual = 0.00247093436649, Final residual = 6.23733430826e-05, No Iterations 1
linear solve omega 179517
bounding omega, min: -62494.999948 max: 2809464.71271 average: 2504.09151535
DILUPBiCGStab:  Solving for k, Initial residual = 0.999999999178, Final residual = 0.0389889152346, No Iterations 1
linear solve k 150968
ExecutionTime = 39.27 s  ClockTime = 39 s

Time = 2

DILUPBiCGStab:  Solving for Ux, Initial residual = 0.0209671430584, Final residual = 0.00175783612976, No Iterations 3
DILUPBiCGStab:  Solving for Uy, Initial residual = 0.289889636902, Final residual = 0.0201293517027, No Iterations 3
DILUPBiCGStab:  Solving for Uz, Initial residual = 0.176193719737, Final residual = 0.0047257897922, No Iterations 4
linear solve U 820245
[OGL LOG][Proc: 0]global_index_init : 32 mu s
[OGL LOG][Proc: 0]global_index_init : 3 mu s
 IS SYMMETRIC
 IS SYMMETRIC
 IS SYMMETRIC
 IS SYMMETRIC
 IS SYMMETRIC
 IS SYMMETRIC
 IS SYMMETRIC
 IS SYMMETRIC
[OGL LOG][Proc: 0]update_host_matrix_data : 16780 mu s
[OGL LOG][Proc: 0]gather_initGuess : 1 mu s
[OGL LOG][Proc: 0]gather_RHS : 0 mu s
[OGL LOG][Proc: 0]gather_global_matrix : 0 mu s
[OGL LOG][Proc: 0]init_precond : 69633 mu s
[OGL LOG][Proc: 0]generate_solver : 0 mu s
[OGL LOG][Proc: 0]solve : 1112523 mu s
ISAIhipGKOCG:  Solving for p, Initial residual = 1, Final residual = 1.12634066082, No Iterations 1001
linear solve p 1550086
time step continuity errors : sum local = 0.513539980331, global = 0.0016925084221, cumulative = 0.00282907065576
DILUPBiCGStab:  Solving for omega, Initial residual = 0.999619724886, Final residual = 0.0891651556809, No Iterations 1
linear solve omega 177878
bounding omega, min: -525.923090668 max: 1.46798400607e+15 average: 665594347.848
DILUPBiCGStab:  Solving for k, Initial residual = 0.726249140339, Final residual = 4.05213420542e-06, No Iterations 1
linear solve k 114083
ExecutionTime = 44.15 s  ClockTime = 44 s

Time = 3

DILUPBiCGStab:  Solving for Ux, Initial residual = 0.973892197875, Final residual = 0.0548380522826, No Iterations 8
DILUPBiCGStab:  Solving for Uy, Initial residual = 0.973905987621, Final residual = 0.0508496656367, No Iterations 8
DILUPBiCGStab:  Solving for Uz, Initial residual = 0.989741630036, Final residual = 0.0770131759087, No Iterations 7
linear solve U 1854797
[OGL LOG][Proc: 0]global_index_init : 41 mu s
[OGL LOG][Proc: 0]global_index_init : 3 mu s
 IS SYMMETRIC
 IS SYMMETRIC
 IS SYMMETRIC
 IS SYMMETRIC
 IS SYMMETRIC
 IS SYMMETRIC
 IS SYMMETRIC
 IS SYMMETRIC
[OGL LOG][Proc: 0]update_host_matrix_data : 15675 mu s
[OGL LOG][Proc: 0]gather_initGuess : 1 mu s
[OGL LOG][Proc: 0]gather_RHS : 0 mu s
[OGL LOG][Proc: 0]gather_global_matrix : 0 mu s
[OGL LOG][Proc: 0]init_precond : 69749 mu s
[OGL LOG][Proc: 0]generate_solver : 0 mu s
[OGL LOG][Proc: 0]solve : 1118017 mu s
ISAIhipGKOCG:  Solving for p, Initial residual = 1, Final residual = 6.62407413142, No Iterations 1001
linear solve p 1561176
time step continuity errors : sum local = 156058.599358, global = 37.591791211, cumulative = 37.5946202817
DILUPBiCGStab:  Solving for omega, Initial residual = 0.538455750183, Final residual = 9.27875205864e-10, No Iterations 1
linear solve omega 142353
bounding omega, min: -8778.33438168 max: 4.40395202405e+14 average: 201167080.028
DILUPBiCGStab:  Solving for k, Initial residual = 0.25605135199, Final residual = 0.00125602462996, No Iterations 1
linear solve k 153868
ExecutionTime = 50.09 s  ClockTime = 50 s

End

Finalising parallel run
================================================================================
hash: e079c659decbb53a9a53513872789fb9
/*---------------------------------------------------------------------------*\
| =========                 |                                                 |
| \\      /  F ield         | OpenFOAM: The Open Source CFD Toolbox           |
|  \\    /   O peration     | Version:  v2106                                 |
|   \\  /    A nd           | Website:  www.openfoam.com                      |
|    \\/     M anipulation  |                                                 |
\*---------------------------------------------------------------------------*/
Build  : f815a12bba-20210902 OPENFOAM=2106
Arch   : "LSB;label=32;scalar=64"
Exec   : simpleFoam -parallel
Date   : Mar 28 2022
Time   : 14:37:05
Host   : nla-gpu2.ianm.kit.edu
PID    : 159593
I/O    : uncollated
Case   : /home/greole/data/code/ogl_labbook/motorcycle/Variation_mesh/Small/Variation_matrix_solver/CG_ISAI_HIP/Variation_mpiRank_gko/7/base
nProcs : 7
Hosts  :
(
    (nla-gpu2.ianm.kit.edu 7)
)
Pstream initialized with:
    floatTransfer      : 0
    nProcsSimpleSum    : 0
    commsType          : nonBlocking
    polling iterations : 0
trapFpe: Floating point exception trapping enabled (FOAM_SIGFPE).
fileModificationChecking : Monitoring run-time modified files using timeStampMaster (fileModificationSkew 5, maxFileModificationPolls 20)
allowSystemOperations : Allowing user-supplied system call operations

// * * * * * * * * * * * * * * * * * * * * * * * * * * * * * * * * * * * * * //
Create time

Create mesh for time = 0


SIMPLE: no convergence criteria found. Calculations will run for 3 steps.

Reading field p

Reading field U

Reading/calculating face flux field phi

Selecting incompressible transport model Newtonian
Selecting turbulence model type RAS
Selecting RAS turbulence model kOmegaSST
Selecting patchDistMethod meshWave
RAS
{
    RASModel        kOmegaSST;
    turbulence      on;
    printCoeffs     on;
    alphaK1         0.85;
    alphaK2         1;
    alphaOmega1     0.5;
    alphaOmega2     0.856;
    gamma1          0.555555555556;
    gamma2          0.44;
    beta1           0.075;
    beta2           0.0828;
    betaStar        0.09;
    a1              0.31;
    b1              1;
    c1              10;
    F3              false;
    decayControl    false;
    kInf            0;
    omegaInf        0;
}

No MRF models present

No finite volume options present

Starting time loop

Time = 1

DILUPBiCGStab:  Solving for Ux, Initial residual = 0.0295513316549, Final residual = 0.000925630967666, No Iterations 4
DILUPBiCGStab:  Solving for Uy, Initial residual = 0.359653502999, Final residual = 0.0110478134521, No Iterations 4
DILUPBiCGStab:  Solving for Uz, Initial residual = 0.260954352573, Final residual = 0.0216740793299, No Iterations 2
linear solve U 1094111
[OGL LOG][Proc: 0]global_index_init : 12122 mu s
[OGL LOG][Proc: 0]global_index_init : 3 mu s
[OGL LOG][Proc: 0]init_host_sparsity_pattern : 11776042 mu s
 IS SYMMETRIC
 IS SYMMETRIC
 IS SYMMETRIC
 IS SYMMETRIC
 IS SYMMETRIC
 IS SYMMETRIC
 IS SYMMETRIC
[OGL LOG][Proc: 0]update_host_matrix_data : 61471 mu s
[OGL LOG][Proc: 0]convert_coo_to_csr : 571068 mu s
[OGL LOG][Proc: 0]gather_initGuess : 11 mu s
[OGL LOG][Proc: 0]gather_RHS : 0 mu s
[OGL LOG][Proc: 0]gather_global_matrix : 0 mu s
[OGL LOG][Proc: 0]init_precond : 118920 mu s
[OGL LOG][Proc: 0]generate_solver : 13 mu s
[OGL LOG][Proc: 0]solve : 1452645 mu s
ISAIhipGKOCG:  Solving for p, Initial residual = 1, Final residual = 2.62005635461, No Iterations 1001
linear solve p 23945429
time step continuity errors : sum local = 0.215118585305, global = 0.00116593777257, cumulative = 0.00116593777257
DILUPBiCGStab:  Solving for omega, Initial residual = 0.00247284334489, Final residual = 6.18675414485e-05, No Iterations 1
linear solve omega 175414
bounding omega, min: -66349.7874773 max: 2809464.71271 average: 2506.34196266
DILUPBiCGStab:  Solving for k, Initial residual = 0.999999999012, Final residual = 0.0399066505582, No Iterations 1
linear solve k 172950
ExecutionTime = 43.1 s  ClockTime = 43 s

Time = 2

DILUPBiCGStab:  Solving for Ux, Initial residual = 0.0210147496542, Final residual = 0.00181892105631, No Iterations 3
DILUPBiCGStab:  Solving for Uy, Initial residual = 0.292517799137, Final residual = 0.0198952123075, No Iterations 3
DILUPBiCGStab:  Solving for Uz, Initial residual = 0.176270161911, Final residual = 0.00188685808187, No Iterations 5
linear solve U 1030611
[OGL LOG][Proc: 0]global_index_init : 33 mu s
[OGL LOG][Proc: 0]global_index_init : 3 mu s
 IS SYMMETRIC
 IS SYMMETRIC
 IS SYMMETRIC
 IS SYMMETRIC
 IS SYMMETRIC
 IS SYMMETRIC
 IS SYMMETRIC
[OGL LOG][Proc: 0]update_host_matrix_data : 17743 mu s
[OGL LOG][Proc: 0]gather_initGuess : 1 mu s
[OGL LOG][Proc: 0]gather_RHS : 0 mu s
[OGL LOG][Proc: 0]gather_global_matrix : 0 mu s
[OGL LOG][Proc: 0]init_precond : 79180 mu s
[OGL LOG][Proc: 0]generate_solver : 1 mu s
[OGL LOG][Proc: 0]solve : 1194214 mu s
ISAIhipGKOCG:  Solving for p, Initial residual = 1, Final residual = 1.05432644637, No Iterations 1001
linear solve p 1773988
time step continuity errors : sum local = 0.46916787896, global = 0.0017470518913, cumulative = 0.00291298966387
DILUPBiCGStab:  Solving for omega, Initial residual = 0.999933198962, Final residual = 0.0510320409149, No Iterations 1
linear solve omega 173423
bounding omega, min: -553.311270648 max: 1.27443431282e+16 average: 3944269989.7
DILUPBiCGStab:  Solving for k, Initial residual = 0.577988784119, Final residual = 6.20526077797e-07, No Iterations 1
linear solve k 130211
ExecutionTime = 48.76 s  ClockTime = 49 s

Time = 3

DILUPBiCGStab:  Solving for Ux, Initial residual = 0.960509040119, Final residual = 0.0621059800086, No Iterations 5
DILUPBiCGStab:  Solving for Uy, Initial residual = 0.952673515248, Final residual = 0.0458200663011, No Iterations 9
DILUPBiCGStab:  Solving for Uz, Initial residual = 0.986814499758, Final residual = 0.0808592301274, No Iterations 8
linear solve U 2062971
[OGL LOG][Proc: 0]global_index_init : 27 mu s
[OGL LOG][Proc: 0]global_index_init : 3 mu s
 IS SYMMETRIC
 IS SYMMETRIC
 IS SYMMETRIC
 IS SYMMETRIC
 IS SYMMETRIC
 IS SYMMETRIC
 IS SYMMETRIC
[OGL LOG][Proc: 0]update_host_matrix_data : 18054 mu s
[OGL LOG][Proc: 0]gather_initGuess : 1 mu s
[OGL LOG][Proc: 0]gather_RHS : 3 mu s
[OGL LOG][Proc: 0]gather_global_matrix : 0 mu s
[OGL LOG][Proc: 0]init_precond : 78870 mu s
[OGL LOG][Proc: 0]generate_solver : 1 mu s
[OGL LOG][Proc: 0]solve : 1183161 mu s
ISAIhipGKOCG:  Solving for p, Initial residual = 1, Final residual = 5.98921518361, No Iterations 1001
linear solve p 1766805
time step continuity errors : sum local = 136676.933204, global = 9.53631868655, cumulative = 9.53923167621
DILUPBiCGStab:  Solving for omega, Initial residual = 0.538461938998, Final residual = 3.72032865743e-14, No Iterations 1
linear solve omega 136337
bounding omega, min: -26440059.665 max: 3.82330293849e+15 average: 1185559927.83
DILUPBiCGStab:  Solving for k, Initial residual = 0.240400309235, Final residual = 0.00150629280445, No Iterations 1
linear solve k 173632
ExecutionTime = 55.47 s  ClockTime = 56 s

End

Finalising parallel run
================================================================================
hash: 44467cd812a91c39316677fa57ba2220
/*---------------------------------------------------------------------------*\
| =========                 |                                                 |
| \\      /  F ield         | OpenFOAM: The Open Source CFD Toolbox           |
|  \\    /   O peration     | Version:  v2106                                 |
|   \\  /    A nd           | Website:  www.openfoam.com                      |
|    \\/     M anipulation  |                                                 |
\*---------------------------------------------------------------------------*/
Build  : f815a12bba-20210902 OPENFOAM=2106
Arch   : "LSB;label=32;scalar=64"
Exec   : simpleFoam -parallel
Date   : Mar 28 2022
Time   : 14:38:02
Host   : nla-gpu2.ianm.kit.edu
PID    : 159628
I/O    : uncollated
Case   : /home/greole/data/code/ogl_labbook/motorcycle/Variation_mesh/Small/Variation_matrix_solver/CG_ISAI_HIP/Variation_mpiRank_gko/2/base
nProcs : 2
Hosts  :
(
    (nla-gpu2.ianm.kit.edu 2)
)
Pstream initialized with:
    floatTransfer      : 0
    nProcsSimpleSum    : 0
    commsType          : nonBlocking
    polling iterations : 0
trapFpe: Floating point exception trapping enabled (FOAM_SIGFPE).
fileModificationChecking : Monitoring run-time modified files using timeStampMaster (fileModificationSkew 5, maxFileModificationPolls 20)
allowSystemOperations : Allowing user-supplied system call operations

// * * * * * * * * * * * * * * * * * * * * * * * * * * * * * * * * * * * * * //
Create time

Create mesh for time = 0


SIMPLE: no convergence criteria found. Calculations will run for 3 steps.

Reading field p

Reading field U

Reading/calculating face flux field phi

Selecting incompressible transport model Newtonian
Selecting turbulence model type RAS
Selecting RAS turbulence model kOmegaSST
Selecting patchDistMethod meshWave
RAS
{
    RASModel        kOmegaSST;
    turbulence      on;
    printCoeffs     on;
    alphaK1         0.85;
    alphaK2         1;
    alphaOmega1     0.5;
    alphaOmega2     0.856;
    gamma1          0.555555555556;
    gamma2          0.44;
    beta1           0.075;
    beta2           0.0828;
    betaStar        0.09;
    a1              0.31;
    b1              1;
    c1              10;
    F3              false;
    decayControl    false;
    kInf            0;
    omegaInf        0;
}

No MRF models present

No finite volume options present

Starting time loop

Time = 1

DILUPBiCGStab:  Solving for Ux, Initial residual = 0.0295513316591, Final residual = 0.000878587421565, No Iterations 4
DILUPBiCGStab:  Solving for Uy, Initial residual = 0.359653502401, Final residual = 0.0253206826813, No Iterations 3
DILUPBiCGStab:  Solving for Uz, Initial residual = 0.260954352452, Final residual = 0.0107410016567, No Iterations 3
linear solve U 4136854
[OGL LOG][Proc: 0]global_index_init : 21 mu s
[OGL LOG][Proc: 0]global_index_init : 1 mu s
[OGL LOG][Proc: 0]init_host_sparsity_pattern : 50570177 mu s
 IS SYMMETRIC
 IS SYMMETRIC
[OGL LOG][Proc: 0]update_host_matrix_data : 141467 mu s
[OGL LOG][Proc: 0]convert_coo_to_csr : 340473 mu s
[OGL LOG][Proc: 0]gather_initGuess : 6 mu s
[OGL LOG][Proc: 0]gather_RHS : 0 mu s
[OGL LOG][Proc: 0]gather_global_matrix : 0 mu s
[OGL LOG][Proc: 0]init_precond : 337548 mu s
[OGL LOG][Proc: 0]generate_solver : 14 mu s
[OGL LOG][Proc: 0]solve : 5913869 mu s
ISAIhipGKOCG:  Solving for p, Initial residual = 1, Final residual = 2.61457237053, No Iterations 1001
linear solve p 59287911
time step continuity errors : sum local = 0.214996253682, global = 0.00109589423456, cumulative = 0.00109589423456
DILUPBiCGStab:  Solving for omega, Initial residual = 0.00247169335335, Final residual = 6.10774788976e-05, No Iterations 1
linear solve omega 687587
bounding omega, min: -67507.1647165 max: 2809464.71271 average: 2505.95598782
DILUPBiCGStab:  Solving for k, Initial residual = 0.99999999816, Final residual = 0.0347706554161, No Iterations 1
linear solve k 598048
ExecutionTime = 121.66 s  ClockTime = 122 s

Time = 2

DILUPBiCGStab:  Solving for Ux, Initial residual = 0.0211004542461, Final residual = 0.0017498295613, No Iterations 3
DILUPBiCGStab:  Solving for Uy, Initial residual = 0.292679694975, Final residual = 0.0209670062125, No Iterations 3
DILUPBiCGStab:  Solving for Uz, Initial residual = 0.173861743724, Final residual = 0.016808986007, No Iterations 2
linear solve U 3242543
[OGL LOG][Proc: 0]global_index_init : 13 mu s
[OGL LOG][Proc: 0]global_index_init : 0 mu s
 IS SYMMETRIC
 IS SYMMETRIC
[OGL LOG][Proc: 0]update_host_matrix_data : 81660 mu s
[OGL LOG][Proc: 0]gather_initGuess : 1 mu s
[OGL LOG][Proc: 0]gather_RHS : 0 mu s
[OGL LOG][Proc: 0]gather_global_matrix : 0 mu s
[OGL LOG][Proc: 0]init_precond : 302650 mu s
[OGL LOG][Proc: 0]generate_solver : 1 mu s
[OGL LOG][Proc: 0]solve : 5630897 mu s
ISAIhipGKOCG:  Solving for p, Initial residual = 1, Final residual = 1.08219517847, No Iterations 1001
linear solve p 7486070
time step continuity errors : sum local = 0.431392371982, global = 0.00160899205281, cumulative = 0.00270488628738
DILUPBiCGStab:  Solving for omega, Initial residual = 0.999936665385, Final residual = 0.0449165132382, No Iterations 1
linear solve omega 626664
bounding omega, min: -551.474781317 max: 1.5388496763e+16 average: 4306954206.01
DILUPBiCGStab:  Solving for k, Initial residual = 0.612969861353, Final residual = 5.52463962352e-07, No Iterations 1
linear solve k 408326
ExecutionTime = 143.89 s  ClockTime = 145 s

Time = 3

DILUPBiCGStab:  Solving for Ux, Initial residual = 0.966995775591, Final residual = 0.0590795876891, No Iterations 8
DILUPBiCGStab:  Solving for Uy, Initial residual = 0.970015674466, Final residual = 0.0541680847377, No Iterations 10
DILUPBiCGStab:  Solving for Uz, Initial residual = 0.989219797759, Final residual = 0.0627343536662, No Iterations 8
linear solve U 9481437
[OGL LOG][Proc: 0]global_index_init : 8 mu s
[OGL LOG][Proc: 0]global_index_init : 1 mu s
 IS SYMMETRIC
 IS SYMMETRIC
[OGL LOG][Proc: 0]update_host_matrix_data : 90071 mu s
[OGL LOG][Proc: 0]gather_initGuess : 2 mu s
[OGL LOG][Proc: 0]gather_RHS : 0 mu s
[OGL LOG][Proc: 0]gather_global_matrix : 0 mu s
[OGL LOG][Proc: 0]init_precond : 300225 mu s
[OGL LOG][Proc: 0]generate_solver : 1 mu s
[OGL LOG][Proc: 0]solve : 5635417 mu s
ISAIhipGKOCG:  Solving for p, Initial residual = 1, Final residual = 5.4322428683, No Iterations 1001
linear solve p 7527490
time step continuity errors : sum local = 105836.527338, global = 45.2184054905, cumulative = 45.2211103768
DILUPBiCGStab:  Solving for omega, Initial residual = 0.538459918929, Final residual = 1.93157183467e-14, No Iterations 1
linear solve omega 519513
bounding omega, min: -2070509.5492 max: 4.61654902891e+15 average: 1292201693.56
DILUPBiCGStab:  Solving for k, Initial residual = 0.228778709774, Final residual = 0.0205541733847, No Iterations 1
linear solve k 457270
ExecutionTime = 172.36 s  ClockTime = 173 s

End

Finalising parallel run
================================================================================
hash: 6e287bb855bfcd1e8333830ee0d754e6
/*---------------------------------------------------------------------------*\
| =========                 |                                                 |
| \\      /  F ield         | OpenFOAM: The Open Source CFD Toolbox           |
|  \\    /   O peration     | Version:  v2106                                 |
|   \\  /    A nd           | Website:  www.openfoam.com                      |
|    \\/     M anipulation  |                                                 |
\*---------------------------------------------------------------------------*/
Build  : f815a12bba-20210902 OPENFOAM=2106
Arch   : "LSB;label=32;scalar=64"
Exec   : simpleFoam -parallel
Date   : Mar 28 2022
Time   : 14:40:58
Host   : nla-gpu2.ianm.kit.edu
PID    : 159659
I/O    : uncollated
Case   : /home/greole/data/code/ogl_labbook/motorcycle/Variation_mesh/Small/Variation_matrix_solver/CG_ISAI_HIP/Variation_mpiRank_gko/3/base
nProcs : 3
Hosts  :
(
    (nla-gpu2.ianm.kit.edu 3)
)
Pstream initialized with:
    floatTransfer      : 0
    nProcsSimpleSum    : 0
    commsType          : nonBlocking
    polling iterations : 0
trapFpe: Floating point exception trapping enabled (FOAM_SIGFPE).
fileModificationChecking : Monitoring run-time modified files using timeStampMaster (fileModificationSkew 5, maxFileModificationPolls 20)
allowSystemOperations : Allowing user-supplied system call operations

// * * * * * * * * * * * * * * * * * * * * * * * * * * * * * * * * * * * * * //
Create time

Create mesh for time = 0


SIMPLE: no convergence criteria found. Calculations will run for 3 steps.

Reading field p

Reading field U

Reading/calculating face flux field phi

Selecting incompressible transport model Newtonian
Selecting turbulence model type RAS
Selecting RAS turbulence model kOmegaSST
Selecting patchDistMethod meshWave
RAS
{
    RASModel        kOmegaSST;
    turbulence      on;
    printCoeffs     on;
    alphaK1         0.85;
    alphaK2         1;
    alphaOmega1     0.5;
    alphaOmega2     0.856;
    gamma1          0.555555555556;
    gamma2          0.44;
    beta1           0.075;
    beta2           0.0828;
    betaStar        0.09;
    a1              0.31;
    b1              1;
    c1              10;
    F3              false;
    decayControl    false;
    kInf            0;
    omegaInf        0;
}

No MRF models present

No finite volume options present

Starting time loop

Time = 1

DILUPBiCGStab:  Solving for Ux, Initial residual = 0.0295513317045, Final residual = 0.000872657107169, No Iterations 4
DILUPBiCGStab:  Solving for Uy, Initial residual = 0.359653502692, Final residual = 0.0296860190451, No Iterations 3
DILUPBiCGStab:  Solving for Uz, Initial residual = 0.260954352582, Final residual = 0.0111395861919, No Iterations 3
linear solve U 2207615
[OGL LOG][Proc: 0]global_index_init : 60 mu s
[OGL LOG][Proc: 0]global_index_init : 2 mu s
[OGL LOG][Proc: 0]init_host_sparsity_pattern : 30547817 mu s
 IS SYMMETRIC
 IS SYMMETRIC
 IS SYMMETRIC
[OGL LOG][Proc: 0]update_host_matrix_data : 94933 mu s
[OGL LOG][Proc: 0]convert_coo_to_csr : 448408 mu s
[OGL LOG][Proc: 0]gather_initGuess : 9 mu s
[OGL LOG][Proc: 0]gather_RHS : 0 mu s
[OGL LOG][Proc: 0]gather_global_matrix : 0 mu s
[OGL LOG][Proc: 0]init_precond : 225640 mu s
[OGL LOG][Proc: 0]generate_solver : 10 mu s
[OGL LOG][Proc: 0]solve : 3575492 mu s
ISAIhipGKOCG:  Solving for p, Initial residual = 1, Final residual = 2.60758429549, No Iterations 1001
linear solve p 51516548
time step continuity errors : sum local = 0.213926434893, global = 0.00110276646581, cumulative = 0.00110276646581
DILUPBiCGStab:  Solving for omega, Initial residual = 0.00247143564906, Final residual = 6.13165163303e-05, No Iterations 1
linear solve omega 365656
bounding omega, min: -67241.6377447 max: 2809464.71271 average: 2505.21344816
DILUPBiCGStab:  Solving for k, Initial residual = 0.99999999833, Final residual = 0.0369875112162, No Iterations 1
linear solve k 314368
ExecutionTime = 90.69 s  ClockTime = 91 s

Time = 2

DILUPBiCGStab:  Solving for Ux, Initial residual = 0.0211197164106, Final residual = 0.00150725997857, No Iterations 3
DILUPBiCGStab:  Solving for Uy, Initial residual = 0.292614597123, Final residual = 0.0209817003684, No Iterations 3
DILUPBiCGStab:  Solving for Uz, Initial residual = 0.173948433291, Final residual = 0.0171412424793, No Iterations 2
linear solve U 1705285
[OGL LOG][Proc: 0]global_index_init : 15 mu s
[OGL LOG][Proc: 0]global_index_init : 1 mu s
 IS SYMMETRIC
 IS SYMMETRIC
 IS SYMMETRIC
[OGL LOG][Proc: 0]update_host_matrix_data : 43872 mu s
[OGL LOG][Proc: 0]gather_initGuess : 2 mu s
[OGL LOG][Proc: 0]gather_RHS : 0 mu s
[OGL LOG][Proc: 0]gather_global_matrix : 0 mu s
[OGL LOG][Proc: 0]init_precond : 189438 mu s
[OGL LOG][Proc: 0]generate_solver : 1 mu s
[OGL LOG][Proc: 0]solve : 3302979 mu s
ISAIhipGKOCG:  Solving for p, Initial residual = 1, Final residual = 1.11947262628, No Iterations 1001
linear solve p 4433690
time step continuity errors : sum local = 0.463147230145, global = 0.00159720688263, cumulative = 0.00269997334844
DILUPBiCGStab:  Solving for omega, Initial residual = 0.999937340328, Final residual = 0.0444703491895, No Iterations 1
linear solve omega 356047
bounding omega, min: -552.22651714 max: 1.59223832262e+16 average: 4404337913.79
DILUPBiCGStab:  Solving for k, Initial residual = 0.619059518024, Final residual = 5.64871313872e-07, No Iterations 1
linear solve k 213520
ExecutionTime = 102.83 s  ClockTime = 103 s

Time = 3

DILUPBiCGStab:  Solving for Ux, Initial residual = 0.962212419983, Final residual = 0.0529353511534, No Iterations 8
DILUPBiCGStab:  Solving for Uy, Initial residual = 0.966625301017, Final residual = 0.0615166247585, No Iterations 11
DILUPBiCGStab:  Solving for Uz, Initial residual = 0.988108978124, Final residual = 0.0958935658741, No Iterations 7
linear solve U 5121057
[OGL LOG][Proc: 0]global_index_init : 34 mu s
[OGL LOG][Proc: 0]global_index_init : 3 mu s
 IS SYMMETRIC
 IS SYMMETRIC
 IS SYMMETRIC
[OGL LOG][Proc: 0]update_host_matrix_data : 44672 mu s
[OGL LOG][Proc: 0]gather_initGuess : 3 mu s
[OGL LOG][Proc: 0]gather_RHS : 0 mu s
[OGL LOG][Proc: 0]gather_global_matrix : 0 mu s
[OGL LOG][Proc: 0]init_precond : 189570 mu s
[OGL LOG][Proc: 0]generate_solver : 1 mu s
[OGL LOG][Proc: 0]solve : 3305709 mu s
ISAIhipGKOCG:  Solving for p, Initial residual = 1, Final residual = 5.47316540423, No Iterations 1001
linear solve p 4439812
time step continuity errors : sum local = 121756.425533, global = 17.943048132, cumulative = 17.9457481054
DILUPBiCGStab:  Solving for omega, Initial residual = 0.538458089759, Final residual = 2.48155000328e-14, No Iterations 1
linear solve omega 272552
bounding omega, min: -423830.410128 max: 4.77671496785e+15 average: 1321453850.32
DILUPBiCGStab:  Solving for k, Initial residual = 0.222320900382, Final residual = 0.020325944831, No Iterations 1
linear solve k 220721
ExecutionTime = 118.34 s  ClockTime = 118 s

End

Finalising parallel run
================================================================================
hash: 336d62139ab3b178a550695a118eca7f
/*---------------------------------------------------------------------------*\
| =========                 |                                                 |
| \\      /  F ield         | OpenFOAM: The Open Source CFD Toolbox           |
|  \\    /   O peration     | Version:  v2106                                 |
|   \\  /    A nd           | Website:  www.openfoam.com                      |
|    \\/     M anipulation  |                                                 |
\*---------------------------------------------------------------------------*/
Build  : f815a12bba-20210902 OPENFOAM=2106
Arch   : "LSB;label=32;scalar=64"
Exec   : simpleFoam -parallel
Date   : Mar 28 2022
Time   : 14:42:58
Host   : nla-gpu2.ianm.kit.edu
PID    : 159689
I/O    : uncollated
Case   : /home/greole/data/code/ogl_labbook/motorcycle/Variation_mesh/Small/Variation_matrix_solver/CG_ISAI_HIP/Variation_mpiRank_gko/6/base
nProcs : 6
Hosts  :
(
    (nla-gpu2.ianm.kit.edu 6)
)
Pstream initialized with:
    floatTransfer      : 0
    nProcsSimpleSum    : 0
    commsType          : nonBlocking
    polling iterations : 0
trapFpe: Floating point exception trapping enabled (FOAM_SIGFPE).
fileModificationChecking : Monitoring run-time modified files using timeStampMaster (fileModificationSkew 5, maxFileModificationPolls 20)
allowSystemOperations : Allowing user-supplied system call operations

// * * * * * * * * * * * * * * * * * * * * * * * * * * * * * * * * * * * * * //
Create time

Create mesh for time = 0


SIMPLE: no convergence criteria found. Calculations will run for 3 steps.

Reading field p

Reading field U

Reading/calculating face flux field phi

Selecting incompressible transport model Newtonian
Selecting turbulence model type RAS
Selecting RAS turbulence model kOmegaSST
Selecting patchDistMethod meshWave
RAS
{
    RASModel        kOmegaSST;
    turbulence      on;
    printCoeffs     on;
    alphaK1         0.85;
    alphaK2         1;
    alphaOmega1     0.5;
    alphaOmega2     0.856;
    gamma1          0.555555555556;
    gamma2          0.44;
    beta1           0.075;
    beta2           0.0828;
    betaStar        0.09;
    a1              0.31;
    b1              1;
    c1              10;
    F3              false;
    decayControl    false;
    kInf            0;
    omegaInf        0;
}

No MRF models present

No finite volume options present

Starting time loop

Time = 1

DILUPBiCGStab:  Solving for Ux, Initial residual = 0.0295513316853, Final residual = 0.00244019578171, No Iterations 3
DILUPBiCGStab:  Solving for Uy, Initial residual = 0.359653504256, Final residual = 0.0302591382936, No Iterations 3
DILUPBiCGStab:  Solving for Uz, Initial residual = 0.260954353339, Final residual = 0.0224390530462, No Iterations 2
linear solve U 1128895
[OGL LOG][Proc: 0]global_index_init : 13105 mu s
[OGL LOG][Proc: 0]global_index_init : 5 mu s
[OGL LOG][Proc: 0]init_host_sparsity_pattern : 7411837 mu s
 IS SYMMETRIC
 IS SYMMETRIC
 IS SYMMETRIC
 IS SYMMETRIC
 IS SYMMETRIC
 IS SYMMETRIC
[OGL LOG][Proc: 0]update_host_matrix_data : 72908 mu s
[OGL LOG][Proc: 0]convert_coo_to_csr : 556299 mu s
[OGL LOG][Proc: 0]gather_initGuess : 8 mu s
[OGL LOG][Proc: 0]gather_RHS : 0 mu s
[OGL LOG][Proc: 0]gather_global_matrix : 0 mu s
[OGL LOG][Proc: 0]init_precond : 130887 mu s
[OGL LOG][Proc: 0]generate_solver : 10 mu s
[OGL LOG][Proc: 0]solve : 1594315 mu s
ISAIhipGKOCG:  Solving for p, Initial residual = 1, Final residual = 2.58630017816, No Iterations 1001
linear solve p 30087057
time step continuity errors : sum local = 0.21774297539, global = 0.00112003483356, cumulative = 0.00112003483356
DILUPBiCGStab:  Solving for omega, Initial residual = 0.00247497970678, Final residual = 6.24490607636e-05, No Iterations 1
linear solve omega 266529
bounding omega, min: -62555.205118 max: 2809464.71271 average: 2504.59594854
DILUPBiCGStab:  Solving for k, Initial residual = 0.999999998838, Final residual = 0.0413180394177, No Iterations 1
linear solve k 219303
ExecutionTime = 51.93 s  ClockTime = 52 s

Time = 2

DILUPBiCGStab:  Solving for Ux, Initial residual = 0.0215931371197, Final residual = 0.00176924725564, No Iterations 3
DILUPBiCGStab:  Solving for Uy, Initial residual = 0.294918976306, Final residual = 0.0224445750708, No Iterations 3
DILUPBiCGStab:  Solving for Uz, Initial residual = 0.177493992357, Final residual = 0.0176870778286, No Iterations 2
linear solve U 1025919
[OGL LOG][Proc: 0]global_index_init : 33 mu s
[OGL LOG][Proc: 0]global_index_init : 3 mu s
 IS SYMMETRIC
 IS SYMMETRIC
 IS SYMMETRIC
 IS SYMMETRIC
 IS SYMMETRIC
 IS SYMMETRIC
[OGL LOG][Proc: 0]update_host_matrix_data : 23704 mu s
[OGL LOG][Proc: 0]gather_initGuess : 2 mu s
[OGL LOG][Proc: 0]gather_RHS : 0 mu s
[OGL LOG][Proc: 0]gather_global_matrix : 0 mu s
[OGL LOG][Proc: 0]init_precond : 91814 mu s
[OGL LOG][Proc: 0]generate_solver : 1 mu s
[OGL LOG][Proc: 0]solve : 1324266 mu s
ISAIhipGKOCG:  Solving for p, Initial residual = 1, Final residual = 1.16382076795, No Iterations 1001
linear solve p 1987583
time step continuity errors : sum local = 0.523594259116, global = 0.00170962027911, cumulative = 0.00282965511266
DILUPBiCGStab:  Solving for omega, Initial residual = 0.999598990713, Final residual = 0.0837200283262, No Iterations 1
linear solve omega 266391
bounding omega, min: -522.608008257 max: 1.23570435857e+15 average: 653855536.247
DILUPBiCGStab:  Solving for k, Initial residual = 0.679674510989, Final residual = 3.96368023071e-06, No Iterations 1
linear solve k 163974
ExecutionTime = 58.48 s  ClockTime = 59 s

Time = 3

DILUPBiCGStab:  Solving for Ux, Initial residual = 0.950453765448, Final residual = 0.057323421392, No Iterations 7
DILUPBiCGStab:  Solving for Uy, Initial residual = 0.953873258661, Final residual = 0.0676441308181, No Iterations 10
DILUPBiCGStab:  Solving for Uz, Initial residual = 0.983039899194, Final residual = 0.0870120436363, No Iterations 7
linear solve U 2716785
[OGL LOG][Proc: 0]global_index_init : 30 mu s
[OGL LOG][Proc: 0]global_index_init : 2 mu s
 IS SYMMETRIC
 IS SYMMETRIC
 IS SYMMETRIC
 IS SYMMETRIC
 IS SYMMETRIC
 IS SYMMETRIC
[OGL LOG][Proc: 0]update_host_matrix_data : 23549 mu s
[OGL LOG][Proc: 0]gather_initGuess : 2 mu s
[OGL LOG][Proc: 0]gather_RHS : 0 mu s
[OGL LOG][Proc: 0]gather_global_matrix : 0 mu s
[OGL LOG][Proc: 0]init_precond : 92071 mu s
[OGL LOG][Proc: 0]generate_solver : 1 mu s
[OGL LOG][Proc: 0]solve : 1319817 mu s
ISAIhipGKOCG:  Solving for p, Initial residual = 1, Final residual = 6.2508631995, No Iterations 1001
linear solve p 1978381
time step continuity errors : sum local = 163330.282883, global = -7.24519995582, cumulative = -7.24237030071
DILUPBiCGStab:  Solving for omega, Initial residual = 0.538453988172, Final residual = 2.12295384629e-11, No Iterations 1
linear solve omega 210717
DILUPBiCGStab:  Solving for k, Initial residual = 0.258610810505, Final residual = 0.00117687091392, No Iterations 1
linear solve k 219303
ExecutionTime = 66.62 s  ClockTime = 67 s

End

Finalising parallel run
================================================================================
hash: 381d824dbb6e28a3e5d393f52b6bd955
/*---------------------------------------------------------------------------*\
| =========                 |                                                 |
| \\      /  F ield         | OpenFOAM: The Open Source CFD Toolbox           |
|  \\    /   O peration     | Version:  v2106                                 |
|   \\  /    A nd           | Website:  www.openfoam.com                      |
|    \\/     M anipulation  |                                                 |
\*---------------------------------------------------------------------------*/
Build  : f815a12bba-20210902 OPENFOAM=2106
Arch   : "LSB;label=32;scalar=64"
Exec   : simpleFoam -parallel
Date   : Mar 28 2022
Time   : 14:44:06
Host   : nla-gpu2.ianm.kit.edu
PID    : 159729
I/O    : uncollated
Case   : /home/greole/data/code/ogl_labbook/motorcycle/Variation_mesh/Small/Variation_matrix_solver/CG_BJ_HIP/Variation_mpiRank_gko/4/base
nProcs : 4
Hosts  :
(
    (nla-gpu2.ianm.kit.edu 4)
)
Pstream initialized with:
    floatTransfer      : 0
    nProcsSimpleSum    : 0
    commsType          : nonBlocking
    polling iterations : 0
trapFpe: Floating point exception trapping enabled (FOAM_SIGFPE).
fileModificationChecking : Monitoring run-time modified files using timeStampMaster (fileModificationSkew 5, maxFileModificationPolls 20)
allowSystemOperations : Allowing user-supplied system call operations

// * * * * * * * * * * * * * * * * * * * * * * * * * * * * * * * * * * * * * //
Create time

Create mesh for time = 0


SIMPLE: no convergence criteria found. Calculations will run for 3 steps.

Reading field p

Reading field U

Reading/calculating face flux field phi

Selecting incompressible transport model Newtonian
Selecting turbulence model type RAS
Selecting RAS turbulence model kOmegaSST
Selecting patchDistMethod meshWave
RAS
{
    RASModel        kOmegaSST;
    turbulence      on;
    printCoeffs     on;
    alphaK1         0.85;
    alphaK2         1;
    alphaOmega1     0.5;
    alphaOmega2     0.856;
    gamma1          0.555555555556;
    gamma2          0.44;
    beta1           0.075;
    beta2           0.0828;
    betaStar        0.09;
    a1              0.31;
    b1              1;
    c1              10;
    F3              false;
    decayControl    false;
    kInf            0;
    omegaInf        0;
}

No MRF models present

No finite volume options present

Starting time loop

Time = 1

DILUPBiCGStab:  Solving for Ux, Initial residual = 0.0295513316773, Final residual = 0.00089987763124, No Iterations 4
DILUPBiCGStab:  Solving for Uy, Initial residual = 0.359653502429, Final residual = 0.0262484100724, No Iterations 3
DILUPBiCGStab:  Solving for Uz, Initial residual = 0.260954352602, Final residual = 0.0110134059938, No Iterations 3
linear solve U 1666435
[OGL LOG][Proc: 0]global_index_init : 169 mu s
[OGL LOG][Proc: 0]global_index_init : 3 mu s
[OGL LOG][Proc: 0]init_host_sparsity_pattern : 22162234 mu s
 IS SYMMETRIC
 IS SYMMETRIC
 IS SYMMETRIC
 IS SYMMETRIC
[OGL LOG][Proc: 0]update_host_matrix_data : 80022 mu s
[OGL LOG][Proc: 0]convert_coo_to_csr : 501658 mu s
[OGL LOG][Proc: 0]gather_initGuess : 8 mu s
[OGL LOG][Proc: 0]gather_RHS : 0 mu s
[OGL LOG][Proc: 0]gather_global_matrix : 0 mu s
[OGL LOG][Proc: 0]init_precond : 26745 mu s
[OGL LOG][Proc: 0]generate_solver : 10 mu s
[OGL LOG][Proc: 0]solve : 501764 mu s
BJhipGKOCG:  Solving for p, Initial residual = 1, Final residual = 0.00998230817641, No Iterations 316
linear solve p 33909628
time step continuity errors : sum local = 0.0008212846667, global = 2.63191124176e-05, cumulative = 2.63191124176e-05
DILUPBiCGStab:  Solving for omega, Initial residual = 0.00231315721579, Final residual = 5.60853771126e-05, No Iterations 1
linear solve omega 302825
bounding omega, min: -64420.1989613 max: 2809464.71271 average: 2480.46604529
DILUPBiCGStab:  Solving for k, Initial residual = 0.999999998677, Final residual = 0.0374409824057, No Iterations 1
linear solve k 237464
ExecutionTime = 65.42 s  ClockTime = 66 s

Time = 2

DILUPBiCGStab:  Solving for Ux, Initial residual = 0.015133480143, Final residual = 0.00100451013613, No Iterations 3
DILUPBiCGStab:  Solving for Uy, Initial residual = 0.218864353398, Final residual = 0.0141227103068, No Iterations 3
DILUPBiCGStab:  Solving for Uz, Initial residual = 0.130638300345, Final residual = 0.0069133260752, No Iterations 3
linear solve U 1372965
[OGL LOG][Proc: 0]global_index_init : 14 mu s
[OGL LOG][Proc: 0]global_index_init : 2 mu s
 IS SYMMETRIC
 IS SYMMETRIC
 IS SYMMETRIC
 IS SYMMETRIC
[OGL LOG][Proc: 0]update_host_matrix_data : 33786 mu s
[OGL LOG][Proc: 0]gather_initGuess : 1 mu s
[OGL LOG][Proc: 0]gather_RHS : 0 mu s
[OGL LOG][Proc: 0]gather_global_matrix : 0 mu s
[OGL LOG][Proc: 0]init_precond : 1542 mu s
[OGL LOG][Proc: 0]generate_solver : 0 mu s
[OGL LOG][Proc: 0]solve : 405437 mu s
BJhipGKOCG:  Solving for p, Initial residual = 1, Final residual = 0.00860719215966, No Iterations 313
linear solve p 1057325
time step continuity errors : sum local = 0.101633220164, global = -2.62331715913e-05, cumulative = 8.59408263292e-08
DILUPBiCGStab:  Solving for omega, Initial residual = 0.00176312410551, Final residual = 4.48629493507e-05, No Iterations 1
linear solve omega 297822
bounding omega, min: -186.018906118 max: 2809505.89347 average: 2821.64423183
DILUPBiCGStab:  Solving for k, Initial residual = 0.03162380769, Final residual = 0.00101376938199, No Iterations 1
linear solve k 237340
ExecutionTime = 72.46 s  ClockTime = 73 s

Time = 3

DILUPBiCGStab:  Solving for Ux, Initial residual = 0.0675811639807, Final residual = 0.00317950852419, No Iterations 8
DILUPBiCGStab:  Solving for Uy, Initial residual = 0.465619576221, Final residual = 0.0304682456326, No Iterations 7
DILUPBiCGStab:  Solving for Uz, Initial residual = 0.480647013534, Final residual = 0.04625176435, No Iterations 6
linear solve U 3200394
[OGL LOG][Proc: 0]global_index_init : 22 mu s
[OGL LOG][Proc: 0]global_index_init : 3 mu s
 IS SYMMETRIC
 IS SYMMETRIC
 IS SYMMETRIC
 IS SYMMETRIC
[OGL LOG][Proc: 0]update_host_matrix_data : 35974 mu s
[OGL LOG][Proc: 0]gather_initGuess : 2 mu s
[OGL LOG][Proc: 0]gather_RHS : 0 mu s
[OGL LOG][Proc: 0]gather_global_matrix : 0 mu s
[OGL LOG][Proc: 0]init_precond : 1522 mu s
[OGL LOG][Proc: 0]generate_solver : 1 mu s
[OGL LOG][Proc: 0]solve : 326488 mu s
BJhipGKOCG:  Solving for p, Initial residual = 1, Final residual = 0.00273158858825, No Iterations 253
linear solve p 986007
time step continuity errors : sum local = 3771.44148878, global = -0.00596125585296, cumulative = -0.00596116991214
DILUPBiCGStab:  Solving for omega, Initial residual = 0.0878477244948, Final residual = 0.00040488392028, No Iterations 1
linear solve omega 226686
DILUPBiCGStab:  Solving for k, Initial residual = 0.133904562293, Final residual = 0.000294034532324, No Iterations 1
linear solve k 235931
ExecutionTime = 81.09 s  ClockTime = 81 s

End

Finalising parallel run
================================================================================
hash: 799c5150658fccfac1ddc254f308dd88
/*---------------------------------------------------------------------------*\
| =========                 |                                                 |
| \\      /  F ield         | OpenFOAM: The Open Source CFD Toolbox           |
|  \\    /   O peration     | Version:  v2106                                 |
|   \\  /    A nd           | Website:  www.openfoam.com                      |
|    \\/     M anipulation  |                                                 |
\*---------------------------------------------------------------------------*/
Build  : f815a12bba-20210902 OPENFOAM=2106
Arch   : "LSB;label=32;scalar=64"
Exec   : simpleFoam -parallel
Date   : Mar 28 2022
Time   : 14:45:29
Host   : nla-gpu2.ianm.kit.edu
PID    : 159761
I/O    : uncollated
Case   : /home/greole/data/code/ogl_labbook/motorcycle/Variation_mesh/Small/Variation_matrix_solver/CG_BJ_HIP/Variation_mpiRank_gko/5/base
nProcs : 5
Hosts  :
(
    (nla-gpu2.ianm.kit.edu 5)
)
Pstream initialized with:
    floatTransfer      : 0
    nProcsSimpleSum    : 0
    commsType          : nonBlocking
    polling iterations : 0
trapFpe: Floating point exception trapping enabled (FOAM_SIGFPE).
fileModificationChecking : Monitoring run-time modified files using timeStampMaster (fileModificationSkew 5, maxFileModificationPolls 20)
allowSystemOperations : Allowing user-supplied system call operations

// * * * * * * * * * * * * * * * * * * * * * * * * * * * * * * * * * * * * * //
Create time

Create mesh for time = 0


SIMPLE: no convergence criteria found. Calculations will run for 3 steps.

Reading field p

Reading field U

Reading/calculating face flux field phi

Selecting incompressible transport model Newtonian
Selecting turbulence model type RAS
Selecting RAS turbulence model kOmegaSST
Selecting patchDistMethod meshWave
RAS
{
    RASModel        kOmegaSST;
    turbulence      on;
    printCoeffs     on;
    alphaK1         0.85;
    alphaK2         1;
    alphaOmega1     0.5;
    alphaOmega2     0.856;
    gamma1          0.555555555556;
    gamma2          0.44;
    beta1           0.075;
    beta2           0.0828;
    betaStar        0.09;
    a1              0.31;
    b1              1;
    c1              10;
    F3              false;
    decayControl    false;
    kInf            0;
    omegaInf        0;
}

No MRF models present

No finite volume options present

Starting time loop

Time = 1

DILUPBiCGStab:  Solving for Ux, Initial residual = 0.0295513316615, Final residual = 0.00222848408214, No Iterations 3
DILUPBiCGStab:  Solving for Uy, Initial residual = 0.359653502392, Final residual = 0.0102520325733, No Iterations 4
DILUPBiCGStab:  Solving for Uz, Initial residual = 0.260954352431, Final residual = 0.0113904832405, No Iterations 3
linear solve U 1385305
[OGL LOG][Proc: 0]global_index_init : 5594 mu s
[OGL LOG][Proc: 0]global_index_init : 2 mu s
[OGL LOG][Proc: 0]init_host_sparsity_pattern : 24153218 mu s
 IS SYMMETRIC
 IS SYMMETRIC
 IS SYMMETRIC
 IS SYMMETRIC
 IS SYMMETRIC
[OGL LOG][Proc: 0]update_host_matrix_data : 73484 mu s
[OGL LOG][Proc: 0]convert_coo_to_csr : 534434 mu s
[OGL LOG][Proc: 0]gather_initGuess : 9 mu s
[OGL LOG][Proc: 0]gather_RHS : 0 mu s
[OGL LOG][Proc: 0]gather_global_matrix : 0 mu s
[OGL LOG][Proc: 0]init_precond : 28383 mu s
[OGL LOG][Proc: 0]generate_solver : 9 mu s
[OGL LOG][Proc: 0]solve : 423059 mu s
BJhipGKOCG:  Solving for p, Initial residual = 1, Final residual = 0.00989632197759, No Iterations 320
linear solve p 27711182
time step continuity errors : sum local = 0.000791608670396, global = 4.30363149971e-05, cumulative = 4.30363149971e-05
DILUPBiCGStab:  Solving for omega, Initial residual = 0.00231348887607, Final residual = 5.61312306718e-05, No Iterations 1
linear solve omega 206566
bounding omega, min: -64114.0374584 max: 2809464.71271 average: 2480.78304465
DILUPBiCGStab:  Solving for k, Initial residual = 0.999999998827, Final residual = 0.0383424286008, No Iterations 1
linear solve k 184549
ExecutionTime = 53.18 s  ClockTime = 53 s

Time = 2

DILUPBiCGStab:  Solving for Ux, Initial residual = 0.0151291792464, Final residual = 0.0010377127166, No Iterations 3
DILUPBiCGStab:  Solving for Uy, Initial residual = 0.220962489416, Final residual = 0.0158013964081, No Iterations 3
DILUPBiCGStab:  Solving for Uz, Initial residual = 0.12991433153, Final residual = 0.00709242146252, No Iterations 3
linear solve U 1089038
[OGL LOG][Proc: 0]global_index_init : 17 mu s
[OGL LOG][Proc: 0]global_index_init : 4 mu s
 IS SYMMETRIC
 IS SYMMETRIC
 IS SYMMETRIC
 IS SYMMETRIC
 IS SYMMETRIC
[OGL LOG][Proc: 0]update_host_matrix_data : 28750 mu s
[OGL LOG][Proc: 0]gather_initGuess : 1 mu s
[OGL LOG][Proc: 0]gather_RHS : 0 mu s
[OGL LOG][Proc: 0]gather_global_matrix : 0 mu s
[OGL LOG][Proc: 0]init_precond : 1182 mu s
[OGL LOG][Proc: 0]generate_solver : 1 mu s
[OGL LOG][Proc: 0]solve : 320364 mu s
BJhipGKOCG:  Solving for p, Initial residual = 1, Final residual = 0.00898133902457, No Iterations 313
linear solve p 882129
time step continuity errors : sum local = 0.0858091551405, global = -2.34212794002e-05, cumulative = 1.96150355969e-05
DILUPBiCGStab:  Solving for omega, Initial residual = 0.0016655842898, Final residual = 4.58937822885e-05, No Iterations 1
linear solve omega 202731
bounding omega, min: -206.046624197 max: 2809538.10963 average: 2818.72507218
DILUPBiCGStab:  Solving for k, Initial residual = 0.0306029022153, Final residual = 0.00104196848735, No Iterations 1
linear solve k 184877
ExecutionTime = 58.84 s  ClockTime = 59 s

Time = 3

DILUPBiCGStab:  Solving for Ux, Initial residual = 0.0756209920345, Final residual = 0.0040690745537, No Iterations 8
DILUPBiCGStab:  Solving for Uy, Initial residual = 0.452658109588, Final residual = 0.043566335077, No Iterations 7
DILUPBiCGStab:  Solving for Uz, Initial residual = 0.461030451543, Final residual = 0.0383179039003, No Iterations 7
linear solve U 2637195
[OGL LOG][Proc: 0]global_index_init : 25 mu s
[OGL LOG][Proc: 0]global_index_init : 3 mu s
 IS SYMMETRIC
 IS SYMMETRIC
 IS SYMMETRIC
 IS SYMMETRIC
 IS SYMMETRIC
[OGL LOG][Proc: 0]update_host_matrix_data : 28216 mu s
[OGL LOG][Proc: 0]gather_initGuess : 1 mu s
[OGL LOG][Proc: 0]gather_RHS : 0 mu s
[OGL LOG][Proc: 0]gather_global_matrix : 0 mu s
[OGL LOG][Proc: 0]init_precond : 1182 mu s
[OGL LOG][Proc: 0]generate_solver : 1 mu s
[OGL LOG][Proc: 0]solve : 258911 mu s
BJhipGKOCG:  Solving for p, Initial residual = 1, Final residual = 0.00678869453178, No Iterations 253
linear solve p 812382
time step continuity errors : sum local = 3091.9708274, global = -0.0357677669687, cumulative = -0.0357481519331
DILUPBiCGStab:  Solving for omega, Initial residual = 0.0970212290576, Final residual = 0.000424232539264, No Iterations 1
linear solve omega 150680
bounding omega, min: -582.193244545 max: 2808955.10785 average: 3297.78252909
DILUPBiCGStab:  Solving for k, Initial residual = 0.112728268343, Final residual = 0.000164691009302, No Iterations 1
linear solve k 184629
ExecutionTime = 65.96 s  ClockTime = 66 s

End

Finalising parallel run
================================================================================
hash: ff2b9cd8939b77ed43c7256a3e8fa005
/*---------------------------------------------------------------------------*\
| =========                 |                                                 |
| \\      /  F ield         | OpenFOAM: The Open Source CFD Toolbox           |
|  \\    /   O peration     | Version:  v2106                                 |
|   \\  /    A nd           | Website:  www.openfoam.com                      |
|    \\/     M anipulation  |                                                 |
\*---------------------------------------------------------------------------*/
Build  : f815a12bba-20210902 OPENFOAM=2106
Arch   : "LSB;label=32;scalar=64"
Exec   : simpleFoam -parallel
Date   : Mar 28 2022
Time   : 14:46:36
Host   : nla-gpu2.ianm.kit.edu
PID    : 159791
I/O    : uncollated
Case   : /home/greole/data/code/ogl_labbook/motorcycle/Variation_mesh/Small/Variation_matrix_solver/CG_BJ_HIP/Variation_mpiRank_gko/8/base
nProcs : 8
Hosts  :
(
    (nla-gpu2.ianm.kit.edu 8)
)
Pstream initialized with:
    floatTransfer      : 0
    nProcsSimpleSum    : 0
    commsType          : nonBlocking
    polling iterations : 0
trapFpe: Floating point exception trapping enabled (FOAM_SIGFPE).
fileModificationChecking : Monitoring run-time modified files using timeStampMaster (fileModificationSkew 5, maxFileModificationPolls 20)
allowSystemOperations : Allowing user-supplied system call operations

// * * * * * * * * * * * * * * * * * * * * * * * * * * * * * * * * * * * * * //
Create time

Create mesh for time = 0


SIMPLE: no convergence criteria found. Calculations will run for 3 steps.

Reading field p

Reading field U

Reading/calculating face flux field phi

Selecting incompressible transport model Newtonian
Selecting turbulence model type RAS
Selecting RAS turbulence model kOmegaSST
Selecting patchDistMethod meshWave
RAS
{
    RASModel        kOmegaSST;
    turbulence      on;
    printCoeffs     on;
    alphaK1         0.85;
    alphaK2         1;
    alphaOmega1     0.5;
    alphaOmega2     0.856;
    gamma1          0.555555555556;
    gamma2          0.44;
    beta1           0.075;
    beta2           0.0828;
    betaStar        0.09;
    a1              0.31;
    b1              1;
    c1              10;
    F3              false;
    decayControl    false;
    kInf            0;
    omegaInf        0;
}

No MRF models present

No finite volume options present

Starting time loop

Time = 1

DILUPBiCGStab:  Solving for Ux, Initial residual = 0.0295513317487, Final residual = 0.000966014686304, No Iterations 4
DILUPBiCGStab:  Solving for Uy, Initial residual = 0.359653504076, Final residual = 0.00927667248609, No Iterations 4
DILUPBiCGStab:  Solving for Uz, Initial residual = 0.260954353289, Final residual = 0.0260248446302, No Iterations 2
linear solve U 951456
[OGL LOG][Proc: 0]global_index_init : 12177 mu s
[OGL LOG][Proc: 0]global_index_init : 3 mu s
[OGL LOG][Proc: 0]init_host_sparsity_pattern : 19211023 mu s
 IS SYMMETRIC
 IS SYMMETRIC
 IS SYMMETRIC
 IS SYMMETRIC
 IS SYMMETRIC
 IS SYMMETRIC
 IS SYMMETRIC
 IS SYMMETRIC
[OGL LOG][Proc: 0]update_host_matrix_data : 59229 mu s
[OGL LOG][Proc: 0]convert_coo_to_csr : 581590 mu s
[OGL LOG][Proc: 0]gather_initGuess : 11 mu s
[OGL LOG][Proc: 0]gather_RHS : 0 mu s
[OGL LOG][Proc: 0]gather_global_matrix : 0 mu s
[OGL LOG][Proc: 0]init_precond : 27159 mu s
[OGL LOG][Proc: 0]generate_solver : 10 mu s
[OGL LOG][Proc: 0]solve : 347987 mu s
BJhipGKOCG:  Solving for p, Initial residual = 1, Final residual = 0.00989180251132, No Iterations 316
linear solve p 21426076
time step continuity errors : sum local = 0.000793882126748, global = 2.79699148451e-05, cumulative = 2.79699148451e-05
DILUPBiCGStab:  Solving for omega, Initial residual = 0.00231421331572, Final residual = 5.71103024054e-05, No Iterations 1
linear solve omega 178503
bounding omega, min: -63921.1050377 max: 2809464.71271 average: 2480.27719705
DILUPBiCGStab:  Solving for k, Initial residual = 0.999999999281, Final residual = 0.04227759396, No Iterations 1
linear solve k 150653
ExecutionTime = 38.42 s  ClockTime = 39 s

Time = 2

DILUPBiCGStab:  Solving for Ux, Initial residual = 0.01515524498, Final residual = 0.0010315444704, No Iterations 3
DILUPBiCGStab:  Solving for Uy, Initial residual = 0.219939058979, Final residual = 0.0147288972969, No Iterations 3
DILUPBiCGStab:  Solving for Uz, Initial residual = 0.132210557564, Final residual = 0.00764832008589, No Iterations 3
linear solve U 746084
[OGL LOG][Proc: 0]global_index_init : 28 mu s
[OGL LOG][Proc: 0]global_index_init : 2 mu s
 IS SYMMETRIC
 IS SYMMETRIC
 IS SYMMETRIC
 IS SYMMETRIC
 IS SYMMETRIC
 IS SYMMETRIC
 IS SYMMETRIC
 IS SYMMETRIC
[OGL LOG][Proc: 0]update_host_matrix_data : 16325 mu s
[OGL LOG][Proc: 0]gather_initGuess : 1 mu s
[OGL LOG][Proc: 0]gather_RHS : 0 mu s
[OGL LOG][Proc: 0]gather_global_matrix : 0 mu s
[OGL LOG][Proc: 0]init_precond : 830 mu s
[OGL LOG][Proc: 0]generate_solver : 1 mu s
[OGL LOG][Proc: 0]solve : 252497 mu s
BJhipGKOCG:  Solving for p, Initial residual = 1, Final residual = 0.00741015296217, No Iterations 313
linear solve p 625782
time step continuity errors : sum local = 0.103562407533, global = 9.03479203206e-06, cumulative = 3.70047068772e-05
DILUPBiCGStab:  Solving for omega, Initial residual = 0.00179793317174, Final residual = 4.51551994388e-05, No Iterations 1
linear solve omega 181292
bounding omega, min: -208.42628334 max: 2809610.11694 average: 2822.14650012
DILUPBiCGStab:  Solving for k, Initial residual = 0.0317162476448, Final residual = 0.00113757072584, No Iterations 1
linear solve k 151525
ExecutionTime = 42.33 s  ClockTime = 42 s

Time = 3

DILUPBiCGStab:  Solving for Ux, Initial residual = 0.0883993975511, Final residual = 0.00213078034972, No Iterations 8
DILUPBiCGStab:  Solving for Uy, Initial residual = 0.480309665512, Final residual = 0.0385910954641, No Iterations 8
DILUPBiCGStab:  Solving for Uz, Initial residual = 0.500631029277, Final residual = 0.0387542592372, No Iterations 6
linear solve U 1768964
[OGL LOG][Proc: 0]global_index_init : 35 mu s
[OGL LOG][Proc: 0]global_index_init : 3 mu s
 IS SYMMETRIC
 IS SYMMETRIC
 IS SYMMETRIC
 IS SYMMETRIC
 IS SYMMETRIC
 IS SYMMETRIC
 IS SYMMETRIC
 IS SYMMETRIC
[OGL LOG][Proc: 0]update_host_matrix_data : 15650 mu s
[OGL LOG][Proc: 0]gather_initGuess : 1 mu s
[OGL LOG][Proc: 0]gather_RHS : 0 mu s
[OGL LOG][Proc: 0]gather_global_matrix : 0 mu s
[OGL LOG][Proc: 0]init_precond : 845 mu s
[OGL LOG][Proc: 0]generate_solver : 0 mu s
[OGL LOG][Proc: 0]solve : 203853 mu s
BJhipGKOCG:  Solving for p, Initial residual = 1, Final residual = 0.00206792424726, No Iterations 253
linear solve p 579201
time step continuity errors : sum local = 3345.2599203, global = -0.00498261754786, cumulative = -0.00494561284098
DILUPBiCGStab:  Solving for omega, Initial residual = 0.056497604736, Final residual = 0.000351490956527, No Iterations 1
linear solve omega 142993
bounding omega, min: -0.207681491545 max: 2808991.92411 average: 3352.57118752
DILUPBiCGStab:  Solving for k, Initial residual = 0.151510657913, Final residual = 0.000334977271395, No Iterations 1
linear solve k 152515
ExecutionTime = 47.18 s  ClockTime = 47 s

End

Finalising parallel run
================================================================================
hash: 73e4f13718bde9c0839eebf40c426b45
/*---------------------------------------------------------------------------*\
| =========                 |                                                 |
| \\      /  F ield         | OpenFOAM: The Open Source CFD Toolbox           |
|  \\    /   O peration     | Version:  v2106                                 |
|   \\  /    A nd           | Website:  www.openfoam.com                      |
|    \\/     M anipulation  |                                                 |
\*---------------------------------------------------------------------------*/
Build  : f815a12bba-20210902 OPENFOAM=2106
Arch   : "LSB;label=32;scalar=64"
Exec   : simpleFoam -parallel
Date   : Mar 28 2022
Time   : 14:47:24
Host   : nla-gpu2.ianm.kit.edu
PID    : 159834
I/O    : uncollated
Case   : /home/greole/data/code/ogl_labbook/motorcycle/Variation_mesh/Small/Variation_matrix_solver/CG_BJ_HIP/Variation_mpiRank_gko/7/base
nProcs : 7
Hosts  :
(
    (nla-gpu2.ianm.kit.edu 7)
)
Pstream initialized with:
    floatTransfer      : 0
    nProcsSimpleSum    : 0
    commsType          : nonBlocking
    polling iterations : 0
trapFpe: Floating point exception trapping enabled (FOAM_SIGFPE).
fileModificationChecking : Monitoring run-time modified files using timeStampMaster (fileModificationSkew 5, maxFileModificationPolls 20)
allowSystemOperations : Allowing user-supplied system call operations

// * * * * * * * * * * * * * * * * * * * * * * * * * * * * * * * * * * * * * //
Create time

Create mesh for time = 0


SIMPLE: no convergence criteria found. Calculations will run for 3 steps.

Reading field p

Reading field U

Reading/calculating face flux field phi

Selecting incompressible transport model Newtonian
Selecting turbulence model type RAS
Selecting RAS turbulence model kOmegaSST
Selecting patchDistMethod meshWave
RAS
{
    RASModel        kOmegaSST;
    turbulence      on;
    printCoeffs     on;
    alphaK1         0.85;
    alphaK2         1;
    alphaOmega1     0.5;
    alphaOmega2     0.856;
    gamma1          0.555555555556;
    gamma2          0.44;
    beta1           0.075;
    beta2           0.0828;
    betaStar        0.09;
    a1              0.31;
    b1              1;
    c1              10;
    F3              false;
    decayControl    false;
    kInf            0;
    omegaInf        0;
}

No MRF models present

No finite volume options present

Starting time loop

Time = 1

DILUPBiCGStab:  Solving for Ux, Initial residual = 0.0295513316549, Final residual = 0.000925630967666, No Iterations 4
DILUPBiCGStab:  Solving for Uy, Initial residual = 0.359653502999, Final residual = 0.0110478134521, No Iterations 4
DILUPBiCGStab:  Solving for Uz, Initial residual = 0.260954352573, Final residual = 0.0216740793299, No Iterations 2
linear solve U 1097020
[OGL LOG][Proc: 0]global_index_init : 11917 mu s
[OGL LOG][Proc: 0]global_index_init : 4 mu s
[OGL LOG][Proc: 0]init_host_sparsity_pattern : 11721194 mu s
 IS SYMMETRIC
 IS SYMMETRIC
 IS SYMMETRIC
 IS SYMMETRIC
 IS SYMMETRIC
 IS SYMMETRIC
 IS SYMMETRIC
[OGL LOG][Proc: 0]update_host_matrix_data : 61091 mu s
[OGL LOG][Proc: 0]convert_coo_to_csr : 571501 mu s
[OGL LOG][Proc: 0]gather_initGuess : 10 mu s
[OGL LOG][Proc: 0]gather_RHS : 0 mu s
[OGL LOG][Proc: 0]gather_global_matrix : 0 mu s
[OGL LOG][Proc: 0]init_precond : 27391 mu s
[OGL LOG][Proc: 0]generate_solver : 13 mu s
[OGL LOG][Proc: 0]solve : 362568 mu s
BJhipGKOCG:  Solving for p, Initial residual = 1, Final residual = 0.00996248356821, No Iterations 319
linear solve p 22525624
time step continuity errors : sum local = 0.000817965372215, global = 4.22426194647e-05, cumulative = 4.22426194647e-05
DILUPBiCGStab:  Solving for omega, Initial residual = 0.00231346734065, Final residual = 5.63641187756e-05, No Iterations 1
linear solve omega 175477
bounding omega, min: -64336.8119362 max: 2809464.71271 average: 2480.86132154
DILUPBiCGStab:  Solving for k, Initial residual = 0.999999999128, Final residual = 0.0431267168566, No Iterations 1
linear solve k 170350
ExecutionTime = 41.51 s  ClockTime = 42 s

Time = 2

DILUPBiCGStab:  Solving for Ux, Initial residual = 0.0151857158481, Final residual = 0.00103384963713, No Iterations 3
DILUPBiCGStab:  Solving for Uy, Initial residual = 0.222966450035, Final residual = 0.0158618554153, No Iterations 3
DILUPBiCGStab:  Solving for Uz, Initial residual = 0.133041759877, Final residual = 0.00748444128763, No Iterations 3
linear solve U 855898
[OGL LOG][Proc: 0]global_index_init : 34 mu s
[OGL LOG][Proc: 0]global_index_init : 3 mu s
 IS SYMMETRIC
 IS SYMMETRIC
 IS SYMMETRIC
 IS SYMMETRIC
 IS SYMMETRIC
 IS SYMMETRIC
 IS SYMMETRIC
[OGL LOG][Proc: 0]update_host_matrix_data : 17621 mu s
[OGL LOG][Proc: 0]gather_initGuess : 2 mu s
[OGL LOG][Proc: 0]gather_RHS : 0 mu s
[OGL LOG][Proc: 0]gather_global_matrix : 0 mu s
[OGL LOG][Proc: 0]init_precond : 936 mu s
[OGL LOG][Proc: 0]generate_solver : 0 mu s
[OGL LOG][Proc: 0]solve : 267115 mu s
BJhipGKOCG:  Solving for p, Initial residual = 1, Final residual = 0.00818355995287, No Iterations 313
linear solve p 772412
time step continuity errors : sum local = 0.093529808345, global = -7.02184696558e-05, cumulative = -2.7975850191e-05
DILUPBiCGStab:  Solving for omega, Initial residual = 0.00170118336044, Final residual = 4.58301047055e-05, No Iterations 1
linear solve omega 174495
bounding omega, min: -225.767658356 max: 2809472.41535 average: 2818.85361076
DILUPBiCGStab:  Solving for k, Initial residual = 0.0310495460737, Final residual = 0.00116909061354, No Iterations 1
linear solve k 172989
ExecutionTime = 46.05 s  ClockTime = 47 s

Time = 3

DILUPBiCGStab:  Solving for Ux, Initial residual = 0.0851653714038, Final residual = 0.00743636858427, No Iterations 8
DILUPBiCGStab:  Solving for Uy, Initial residual = 0.476322865944, Final residual = 0.0296681245293, No Iterations 8
DILUPBiCGStab:  Solving for Uz, Initial residual = 0.493836483816, Final residual = 0.0332071851351, No Iterations 7
linear solve U 2105010
[OGL LOG][Proc: 0]global_index_init : 31 mu s
[OGL LOG][Proc: 0]global_index_init : 3 mu s
 IS SYMMETRIC
 IS SYMMETRIC
 IS SYMMETRIC
 IS SYMMETRIC
 IS SYMMETRIC
 IS SYMMETRIC
 IS SYMMETRIC
[OGL LOG][Proc: 0]update_host_matrix_data : 17507 mu s
[OGL LOG][Proc: 0]gather_initGuess : 3 mu s
[OGL LOG][Proc: 0]gather_RHS : 0 mu s
[OGL LOG][Proc: 0]gather_global_matrix : 0 mu s
[OGL LOG][Proc: 0]init_precond : 966 mu s
[OGL LOG][Proc: 0]generate_solver : 0 mu s
[OGL LOG][Proc: 0]solve : 214195 mu s
BJhipGKOCG:  Solving for p, Initial residual = 1, Final residual = 0.00684543697866, No Iterations 253
linear solve p 720245
time step continuity errors : sum local = 3482.04790072, global = -0.10138911368, cumulative = -0.10141708953
DILUPBiCGStab:  Solving for omega, Initial residual = 0.0879196247642, Final residual = 0.000539269373731, No Iterations 1
linear solve omega 133415
bounding omega, min: -1088.3410269 max: 2808914.93066 average: 3289.12622624
DILUPBiCGStab:  Solving for k, Initial residual = 0.102141794811, Final residual = 0.00017545125492, No Iterations 1
linear solve k 172170
ExecutionTime = 51.76 s  ClockTime = 52 s

End

Finalising parallel run
================================================================================
hash: 81b3ff769e9c60f809daf8fe0738aa1d
/*---------------------------------------------------------------------------*\
| =========                 |                                                 |
| \\      /  F ield         | OpenFOAM: The Open Source CFD Toolbox           |
|  \\    /   O peration     | Version:  v2106                                 |
|   \\  /    A nd           | Website:  www.openfoam.com                      |
|    \\/     M anipulation  |                                                 |
\*---------------------------------------------------------------------------*/
Build  : f815a12bba-20210902 OPENFOAM=2106
Arch   : "LSB;label=32;scalar=64"
Exec   : simpleFoam -parallel
Date   : Mar 28 2022
Time   : 14:48:18
Host   : nla-gpu2.ianm.kit.edu
PID    : 159874
I/O    : uncollated
Case   : /home/greole/data/code/ogl_labbook/motorcycle/Variation_mesh/Small/Variation_matrix_solver/CG_BJ_HIP/Variation_mpiRank_gko/2/base
nProcs : 2
Hosts  :
(
    (nla-gpu2.ianm.kit.edu 2)
)
[...]

Reading field p

Reading field U

Reading/calculating face flux field phi

Selecting incompressible transport model Newtonian
Selecting turbulence model type RAS
Selecting RAS turbulence model kOmegaSST
Selecting patchDistMethod meshWave
RAS
{
    RASModel        kOmegaSST;
    turbulence      on;
    printCoeffs     on;
    alphaK1         0.85;
    alphaK2         1;
    alphaOmega1     0.5;
    alphaOmega2     0.856;
    gamma1          0.555555555556;
    gamma2          0.44;
    beta1           0.075;
    beta2           0.0828;
    betaStar        0.09;
    a1              0.31;
    b1              1;
    c1              10;
    F3              false;
    decayControl    false;
    kInf            0;
    omegaInf        0;
}

No MRF models present

No finite volume options present

Starting time loop

Time = 1

DILUPBiCGStab:  Solving for Ux, Initial residual = 0.0298408184804, Final residual = 0.000854721904317, No Iterations 4
DILUPBiCGStab:  Solving for Uy, Initial residual = 0.416436009193, Final residual = 0.0294451271083, No Iterations 3
DILUPBiCGStab:  Solving for Uz, Initial residual = 0.262309070455, Final residual = 0.0106355899411, No Iterations 3
linear solve U 16421055
[OGL LOG][Proc: 0]global_index_init : 25 mu s
[OGL LOG][Proc: 0]global_index_init : 1 mu s
[OGL LOG][Proc: 0]init_host_sparsity_pattern : 24771950 mu s
 IS SYMMETRIC
 IS SYMMETRIC
[OGL LOG][Proc: 0]update_host_matrix_data : 462903 mu s
[OGL LOG][Proc: 0]convert_coo_to_csr : 1794641 mu s
[OGL LOG][Proc: 0]gather_initGuess : 10 mu s
[OGL LOG][Proc: 0]gather_RHS : 1 mu s
[OGL LOG][Proc: 0]gather_global_matrix : 0 mu s
[OGL LOG][Proc: 0]init_precond : 2082317 mu s
[OGL LOG][Proc: 0]generate_solver : 2 mu s
[OGL LOG][Proc: 0]solve : 7856885 mu s
MultigridhipGKOCG:  Solving for p, Initial residual = 1, Final residual = 0.0099820203111, No Iterations 36
linear solve p 48620081
time step continuity errors : sum local = 0.00082072808792, global = 2.61589551123e-06, cumulative = 2.61589551123e-06
DILUPBiCGStab:  Solving for omega, Initial residual = 0.00231260804854, Final residual = 5.52169049435e-05, No Iterations 1
linear solve omega 2426509
bounding omega, min: -64344.3230815 max: 2809464.71271 average: 2480.79530008
DILUPBiCGStab:  Solving for k, Initial residual = 0.999999859898, Final residual = 0.0370045684001, No Iterations 1
linear solve k 2269887
ExecutionTime = 314.76 s  ClockTime = 315 s

Time = 2

DILUPBiCGStab:  Solving for Ux, Initial residual = 0.0152770289641, Final residual = 0.000974779644253, No Iterations 3
DILUPBiCGStab:  Solving for Uy, Initial residual = 0.26427327512, Final residual = 0.0161039121601, No Iterations 3
DILUPBiCGStab:  Solving for Uz, Initial residual = 0.13117337456, Final residual = 0.00662255502841, No Iterations 3
linear solve U 14741893
[OGL LOG][Proc: 0]global_index_init : 12 mu s
[OGL LOG][Proc: 0]global_index_init : 0 mu s
 IS SYMMETRIC
 IS SYMMETRIC
[OGL LOG][Proc: 0]update_host_matrix_data : 365843 mu s
[OGL LOG][Proc: 0]gather_initGuess : 2 mu s
[OGL LOG][Proc: 0]gather_RHS : 0 mu s
[OGL LOG][Proc: 0]gather_global_matrix : 0 mu s
[OGL LOG][Proc: 0]init_precond : 1982809 mu s
[OGL LOG][Proc: 0]generate_solver : 0 mu s
[OGL LOG][Proc: 0]solve : 10011282 mu s
MultigridhipGKOCG:  Solving for p, Initial residual = 1, Final residual = 0.00957761456805, No Iterations 40
linear solve p 22346437
time step continuity errors : sum local = 0.0540698746937, global = -1.76558984821e-05, cumulative = -1.50400029708e-05
DILUPBiCGStab:  Solving for omega, Initial residual = 0.00146113478803, Final residual = 4.57824435392e-05, No Iterations 1
linear solve omega 2460684
bounding omega, min: -218.427229718 max: 2809504.74251 average: 2808.34348004
DILUPBiCGStab:  Solving for k, Initial residual = 0.0285734383276, Final residual = 0.000998774761916, No Iterations 1
linear solve k 2440092
ExecutionTime = 399.98 s  ClockTime = 401 s

Time = 3

DILUPBiCGStab:  Solving for Ux, Initial residual = 0.0414440590758, Final residual = 0.00349585730635, No Iterations 7
DILUPBiCGStab:  Solving for Uy, Initial residual = 0.41999506886, Final residual = 0.0396189859531, No Iterations 7
DILUPBiCGStab:  Solving for Uz, Initial residual = 0.374791725349, Final residual = 0.035303991672, No Iterations 6
linear solve U 31036079
[OGL LOG][Proc: 0]global_index_init : 12 mu s
[OGL LOG][Proc: 0]global_index_init : 0 mu s
 IS SYMMETRIC
 IS SYMMETRIC
[OGL LOG][Proc: 0]update_host_matrix_data : 386875 mu s
[OGL LOG][Proc: 0]gather_initGuess : 3 mu s
[OGL LOG][Proc: 0]gather_RHS : 0 mu s
[OGL LOG][Proc: 0]gather_global_matrix : 0 mu s
[OGL LOG][Proc: 0]init_precond : 1980673 mu s
[OGL LOG][Proc: 0]generate_solver : 0 mu s
[OGL LOG][Proc: 0]solve : 8330653 mu s
MultigridhipGKOCG:  Solving for p, Initial residual = 1, Final residual = 0.00198479333239, No Iterations 33
linear solve p 20906042
time step continuity errors : sum local = 1968.28353171, global = -0.00311084445725, cumulative = -0.00312588446022
DILUPBiCGStab:  Solving for omega, Initial residual = 0.081073131204, Final residual = 0.000336032580882, No Iterations 1
linear solve omega 1684103
bounding omega, min: -901.676230834 max: 2808956.58506 average: 3182.42341417
DILUPBiCGStab:  Solving for k, Initial residual = 0.131324999275, Final residual = 0.000291924029291, No Iterations 1
linear solve k 2530624
ExecutionTime = 499.83 s  ClockTime = 501 s

End

Finalising parallel run
================================================================================
hash: 256ded062fb47b57d43fc92158cc5b9e
/*---------------------------------------------------------------------------*\
| =========                 |                                                 |
| \\      /  F ield         | OpenFOAM: The Open Source CFD Toolbox           |
|  \\    /   O peration     | Version:  v2106                                 |
|   \\  /    A nd           | Website:  www.openfoam.com                      |
|    \\/     M anipulation  |                                                 |
\*---------------------------------------------------------------------------*/
Build  : f815a12bba-20210902 OPENFOAM=2106
Arch   : "LSB;label=32;scalar=64"
Exec   : simpleFoam -parallel
Date   : Mar 28 2022
Time   : 21:09:42
Host   : nla-gpu2.ianm.kit.edu
PID    : 166251
I/O    : uncollated
Case   : /home/greole/data/code/ogl_labbook/motorcycle/Variation_mesh/Large/Variation_matrix_solver/CG_Multigrid_HIP/Variation_mpiRank_gko/3/base
nProcs : 3
Hosts  :
(
    (nla-gpu2.ianm.kit.edu 3)
)
Pstream initialized with:
    floatTransfer      : 0
    nProcsSimpleSum    : 0
    commsType          : nonBlocking
    polling iterations : 0
trapFpe: Floating point exception trapping enabled (FOAM_SIGFPE).
fileModificationChecking : Monitoring run-time modified files using timeStampMaster (fileModificationSkew 5, maxFileModificationPolls 20)
allowSystemOperations : Allowing user-supplied system call operations

// * * * * * * * * * * * * * * * * * * * * * * * * * * * * * * * * * * * * * //
Create time

Create mesh for time = 0


SIMPLE: no convergence criteria found. Calculations will run for 3 steps.

Reading field p

Reading field U

Reading/calculating face flux field phi

Selecting incompressible transport model Newtonian
Selecting turbulence model type RAS
Selecting RAS turbulence model kOmegaSST
Selecting patchDistMethod meshWave
RAS
{
    RASModel        kOmegaSST;
    turbulence      on;
    printCoeffs     on;
    alphaK1         0.85;
    alphaK2         1;
    alphaOmega1     0.5;
    alphaOmega2     0.856;
    gamma1          0.555555555556;
    gamma2          0.44;
    beta1           0.075;
    beta2           0.0828;
    betaStar        0.09;
    a1              0.31;
    b1              1;
    c1              10;
    F3              false;
    decayControl    false;
    kInf            0;
    omegaInf        0;
}

No MRF models present

No finite volume options present

Starting time loop

Time = 1

DILUPBiCGStab:  Solving for Ux, Initial residual = 0.0298408184775, Final residual = 0.00165524669377, No Iterations 3
DILUPBiCGStab:  Solving for Uy, Initial residual = 0.416436009221, Final residual = 0.0314732073939, No Iterations 3
DILUPBiCGStab:  Solving for Uz, Initial residual = 0.26230907055, Final residual = 0.0108844961915, No Iterations 3
linear solve U 8517395
[OGL LOG][Proc: 0]global_index_init : 2824 mu s
[OGL LOG][Proc: 0]global_index_init : 1 mu s
[OGL LOG][Proc: 0]init_host_sparsity_pattern : 153801356 mu s
 IS SYMMETRIC
 IS SYMMETRIC
 IS SYMMETRIC
[OGL LOG][Proc: 0]update_host_matrix_data : 259029 mu s
[OGL LOG][Proc: 0]convert_coo_to_csr : 1795832 mu s
[OGL LOG][Proc: 0]gather_initGuess : 15 mu s
[OGL LOG][Proc: 0]gather_RHS : 0 mu s
[OGL LOG][Proc: 0]gather_global_matrix : 0 mu s
[OGL LOG][Proc: 0]init_precond : 1105272 mu s
[OGL LOG][Proc: 0]generate_solver : 5 mu s
[OGL LOG][Proc: 0]solve : 4589830 mu s
MultigridhipGKOCG:  Solving for p, Initial residual = 1, Final residual = 0.00966404658552, No Iterations 33
linear solve p 187869859
time step continuity errors : sum local = 0.000793819101555, global = 3.55018874273e-05, cumulative = 3.55018874273e-05
DILUPBiCGStab:  Solving for omega, Initial residual = 0.0023131809929, Final residual = 5.54134169369e-05, No Iterations 1
linear solve omega 1294811
bounding omega, min: -64283.7487559 max: 2809464.71271 average: 2480.58622593
DILUPBiCGStab:  Solving for k, Initial residual = 0.999999936615, Final residual = 0.0393002692748, No Iterations 1
linear solve k 1263926
ExecutionTime = 358.65 s  ClockTime = 359 s

Time = 2

DILUPBiCGStab:  Solving for Ux, Initial residual = 0.0152670690322, Final residual = 0.000974449964354, No Iterations 3
DILUPBiCGStab:  Solving for Uy, Initial residual = 0.262737332845, Final residual = 0.0160691910951, No Iterations 3
DILUPBiCGStab:  Solving for Uz, Initial residual = 0.130631730775, Final residual = 0.00667408385763, No Iterations 3
linear solve U 7232354
[OGL LOG][Proc: 0]global_index_init : 43 mu s
[OGL LOG][Proc: 0]global_index_init : 2 mu s
 IS SYMMETRIC
 IS SYMMETRIC
 IS SYMMETRIC
[OGL LOG][Proc: 0]update_host_matrix_data : 181224 mu s
[OGL LOG][Proc: 0]gather_initGuess : 4 mu s
[OGL LOG][Proc: 0]gather_RHS : 0 mu s
[OGL LOG][Proc: 0]gather_global_matrix : 0 mu s
[OGL LOG][Proc: 0]init_precond : 1080330 mu s
[OGL LOG][Proc: 0]generate_solver : 0 mu s
[OGL LOG][Proc: 0]solve : 4479207 mu s
MultigridhipGKOCG:  Solving for p, Initial residual = 1, Final residual = 0.00984390207323, No Iterations 32
linear solve p 9358022
time step continuity errors : sum local = 0.0662402674273, global = 3.19121694374e-05, cumulative = 6.74140568647e-05
DILUPBiCGStab:  Solving for omega, Initial residual = 0.0015338995719, Final residual = 4.89850449607e-05, No Iterations 1
linear solve omega 1223309
bounding omega, min: -206.512302261 max: 6139208.78291 average: 2810.62206233
DILUPBiCGStab:  Solving for k, Initial residual = 0.0292748367369, Final residual = 0.00106678843581, No Iterations 1
linear solve k 1273893
ExecutionTime = 399.81 s  ClockTime = 400 s

Time = 3

DILUPBiCGStab:  Solving for Ux, Initial residual = 0.0486878046433, Final residual = 0.00370428125159, No Iterations 7
DILUPBiCGStab:  Solving for Uy, Initial residual = 0.431763875327, Final residual = 0.0350910656808, No Iterations 7
DILUPBiCGStab:  Solving for Uz, Initial residual = 0.397292316475, Final residual = 0.0238966212138, No Iterations 7
linear solve U 18112895
[OGL LOG][Proc: 0]global_index_init : 21 mu s
[OGL LOG][Proc: 0]global_index_init : 3 mu s
 IS SYMMETRIC
 IS SYMMETRIC
 IS SYMMETRIC
[OGL LOG][Proc: 0]update_host_matrix_data : 182362 mu s
[OGL LOG][Proc: 0]gather_initGuess : 2 mu s
[OGL LOG][Proc: 0]gather_RHS : 10 mu s
[OGL LOG][Proc: 0]gather_global_matrix : 0 mu s
[OGL LOG][Proc: 0]init_precond : 1077244 mu s
[OGL LOG][Proc: 0]generate_solver : 0 mu s
[OGL LOG][Proc: 0]solve : 4341665 mu s
MultigridhipGKOCG:  Solving for p, Initial residual = 1, Final residual = 0.00267689827747, No Iterations 26
linear solve p 9221598
time step continuity errors : sum local = 2438.83933086, global = -0.00190532075879, cumulative = -0.00183790670193
DILUPBiCGStab:  Solving for omega, Initial residual = 0.0819446118881, Final residual = 0.000356064023876, No Iterations 1
linear solve omega 858827
bounding omega, min: -899.277516897 max: 2808974.6271 average: 3217.4882319
DILUPBiCGStab:  Solving for k, Initial residual = 0.137889869442, Final residual = 0.000289312424857, No Iterations 1
linear solve k 1322078
ExecutionTime = 451.54 s  ClockTime = 452 s

End

Finalising parallel run
================================================================================
hash: 0f6068bde9269a2af8ee30473f6db998
/*---------------------------------------------------------------------------*\
| =========                 |                                                 |
| \\      /  F ield         | OpenFOAM: The Open Source CFD Toolbox           |
|  \\    /   O peration     | Version:  v2106                                 |
|   \\  /    A nd           | Website:  www.openfoam.com                      |
|    \\/     M anipulation  |                                                 |
\*---------------------------------------------------------------------------*/
Build  : f815a12bba-20210902 OPENFOAM=2106
Arch   : "LSB;label=32;scalar=64"
Exec   : simpleFoam -parallel
Date   : Mar 28 2022
Time   : 21:17:17
Host   : nla-gpu2.ianm.kit.edu
PID    : 166313
I/O    : uncollated
Case   : /home/greole/data/code/ogl_labbook/motorcycle/Variation_mesh/Large/Variation_matrix_solver/CG_Multigrid_HIP/Variation_mpiRank_gko/6/base
nProcs : 6
Hosts  :
(
    (nla-gpu2.ianm.kit.edu 6)
)
Pstream initialized with:
    floatTransfer      : 0
    nProcsSimpleSum    : 0
    commsType          : nonBlocking
    polling iterations : 0
trapFpe: Floating point exception trapping enabled (FOAM_SIGFPE).
fileModificationChecking : Monitoring run-time modified files using timeStampMaster (fileModificationSkew 5, maxFileModificationPolls 20)
allowSystemOperations : Allowing user-supplied system call operations

// * * * * * * * * * * * * * * * * * * * * * * * * * * * * * * * * * * * * * //
Create time

Create mesh for time = 0


SIMPLE: no convergence criteria found. Calculations will run for 3 steps.

Reading field p

Reading field U

Reading/calculating face flux field phi

Selecting incompressible transport model Newtonian
Selecting turbulence model type RAS
Selecting RAS turbulence model kOmegaSST
Selecting patchDistMethod meshWave
RAS
{
    RASModel        kOmegaSST;
    turbulence      on;
    printCoeffs     on;
    alphaK1         0.85;
    alphaK2         1;
    alphaOmega1     0.5;
    alphaOmega2     0.856;
    gamma1          0.555555555556;
    gamma2          0.44;
    beta1           0.075;
    beta2           0.0828;
    betaStar        0.09;
    a1              0.31;
    b1              1;
    c1              10;
    F3              false;
    decayControl    false;
    kInf            0;
    omegaInf        0;
}

No MRF models present

No finite volume options present

Starting time loop

Time = 1

DILUPBiCGStab:  Solving for Ux, Initial residual = 0.0298408184771, Final residual = 0.000913231765048, No Iterations 4
DILUPBiCGStab:  Solving for Uy, Initial residual = 0.416436009194, Final residual = 0.0352111866956, No Iterations 3
DILUPBiCGStab:  Solving for Uz, Initial residual = 0.26230907045, Final residual = 0.0119182563793, No Iterations 3
linear solve U 5298289
[OGL LOG][Proc: 0]global_index_init : 15161 mu s
[OGL LOG][Proc: 0]global_index_init : 3 mu s
[OGL LOG][Proc: 0]init_host_sparsity_pattern : 69913612 mu s
 IS SYMMETRIC
 IS SYMMETRIC
 IS SYMMETRIC
 IS SYMMETRIC
 IS SYMMETRIC
 IS SYMMETRIC
[OGL LOG][Proc: 0]update_host_matrix_data : 148571 mu s
[OGL LOG][Proc: 0]convert_coo_to_csr : 2231851 mu s
[OGL LOG][Proc: 0]gather_initGuess : 10 mu s
[OGL LOG][Proc: 0]gather_RHS : 0 mu s
[OGL LOG][Proc: 0]gather_global_matrix : 0 mu s
[OGL LOG][Proc: 0]init_precond : 527885 mu s
[OGL LOG][Proc: 0]generate_solver : 4 mu s
[OGL LOG][Proc: 0]solve : 2066054 mu s
MultigridhipGKOCG:  Solving for p, Initial residual = 1, Final residual = 0.0097610676249, No Iterations 32
linear solve p 135642662
time step continuity errors : sum local = 0.000807219495127, global = 9.33028214203e-05, cumulative = 9.33028214203e-05
DILUPBiCGStab:  Solving for omega, Initial residual = 0.00231324921204, Final residual = 5.5486050071e-05, No Iterations 1
linear solve omega 864891
bounding omega, min: -64292.3300429 max: 2809464.71271 average: 2480.74579838
DILUPBiCGStab:  Solving for k, Initial residual = 0.999999998302, Final residual = 0.040406717235, No Iterations 1
linear solve k 853722
ExecutionTime = 229.15 s  ClockTime = 230 s

Time = 2

DILUPBiCGStab:  Solving for Ux, Initial residual = 0.0153020524948, Final residual = 0.00101990021308, No Iterations 3
DILUPBiCGStab:  Solving for Uy, Initial residual = 0.263039795796, Final residual = 0.016862100109, No Iterations 3
DILUPBiCGStab:  Solving for Uz, Initial residual = 0.131372135561, Final residual = 0.0068503351708, No Iterations 3
linear solve U 4463094
[OGL LOG][Proc: 0]global_index_init : 48 mu s
[OGL LOG][Proc: 0]global_index_init : 3 mu s
 IS SYMMETRIC
 IS SYMMETRIC
 IS SYMMETRIC
 IS SYMMETRIC
 IS SYMMETRIC
 IS SYMMETRIC
[OGL LOG][Proc: 0]update_host_matrix_data : 90878 mu s
[OGL LOG][Proc: 0]gather_initGuess : 2 mu s
[OGL LOG][Proc: 0]gather_RHS : 1 mu s
[OGL LOG][Proc: 0]gather_global_matrix : 0 mu s
[OGL LOG][Proc: 0]init_precond : 461535 mu s
[OGL LOG][Proc: 0]generate_solver : 0 mu s
[OGL LOG][Proc: 0]solve : 2115087 mu s
MultigridhipGKOCG:  Solving for p, Initial residual = 1, Final residual = 0.00902497686973, No Iterations 33
linear solve p 5732296
time step continuity errors : sum local = 0.0857901342597, global = 0.000114560855538, cumulative = 0.000207863676958
DILUPBiCGStab:  Solving for omega, Initial residual = 0.00165389444373, Final residual = 4.48451293785e-05, No Iterations 1
linear solve omega 857474
bounding omega, min: -198.41016709 max: 2809509.59703 average: 2816.83273675
DILUPBiCGStab:  Solving for k, Initial residual = 0.0304878810455, Final residual = 0.00112541119516, No Iterations 1
linear solve k 858798
ExecutionTime = 253.95 s  ClockTime = 255 s

Time = 3

DILUPBiCGStab:  Solving for Ux, Initial residual = 0.0564645200818, Final residual = 0.00356169562679, No Iterations 8
DILUPBiCGStab:  Solving for Uy, Initial residual = 0.471475976248, Final residual = 0.0372188467308, No Iterations 7
DILUPBiCGStab:  Solving for Uz, Initial residual = 0.451761478034, Final residual = 0.00973163269055, No Iterations 8
linear solve U 10685964
[OGL LOG][Proc: 0]global_index_init : 32 mu s
[OGL LOG][Proc: 0]global_index_init : 2 mu s
 IS SYMMETRIC
 IS SYMMETRIC
 IS SYMMETRIC
 IS SYMMETRIC
 IS SYMMETRIC
 IS SYMMETRIC
[OGL LOG][Proc: 0]update_host_matrix_data : 90901 mu s
[OGL LOG][Proc: 0]gather_initGuess : 3 mu s
[OGL LOG][Proc: 0]gather_RHS : 0 mu s
[OGL LOG][Proc: 0]gather_global_matrix : 0 mu s
[OGL LOG][Proc: 0]init_precond : 461386 mu s
[OGL LOG][Proc: 0]generate_solver : 0 mu s
[OGL LOG][Proc: 0]solve : 1738260 mu s
MultigridhipGKOCG:  Solving for p, Initial residual = 1, Final residual = 0.00220628017572, No Iterations 27
linear solve p 5353658
time step continuity errors : sum local = 3250.20071034, global = -0.00430784732498, cumulative = -0.00409998364802
DILUPBiCGStab:  Solving for omega, Initial residual = 0.0838668680996, Final residual = 0.000355796103379, No Iterations 1
linear solve omega 670284
bounding omega, min: -397.693435077 max: 2808975.37911 average: 3284.85193188
DILUPBiCGStab:  Solving for k, Initial residual = 0.135033324101, Final residual = 0.000324947028672, No Iterations 1
linear solve k 862751
ExecutionTime = 284.39 s  ClockTime = 286 s

End

Finalising parallel run
================================================================================
