hash: d42e8cb22f5583d71425bfe40e8df2fa
/*---------------------------------------------------------------------------*\
| =========                 |                                                 |
| \\      /  F ield         | OpenFOAM: The Open Source CFD Toolbox           |
|  \\    /   O peration     | Version:  2112                                  |
|   \\  /    A nd           | Website:  www.openfoam.com                      |
|    \\/     M anipulation  |                                                 |
\*---------------------------------------------------------------------------*/
Build  : d44c8318f0-20220111 OPENFOAM=2112 version=v2112
Arch   : "LSB;label=32;scalar=64"
Exec   : icoFoam -parallel
Date   : Oct 08 2022
Time   : 11:51:21
Host   : hkn0734.localdomain
PID    : 2928439
I/O    : uncollated
Case   : /hkfs/work/workspace/scratch/eq4036-lidDrivenCavity/repartition/mesh/400/matrix_solver/CG_NoPrecond_Ginkgo_CUDA/mpiRank_gko/4/base
nProcs : 4
Hosts  :
(
    (hkn0734.localdomain 4)
)
Pstream initialized with:
    floatTransfer      : 0
    nProcsSimpleSum    : 0
    commsType          : nonBlocking
    polling iterations : 0
trapFpe: Floating point exception trapping enabled (FOAM_SIGFPE).
fileModificationChecking : Monitoring run-time modified files using timeStampMaster (fileModificationSkew 5, maxFileModificationPolls 20)
allowSystemOperations : Allowing user-supplied system call operations

// * * * * * * * * * * * * * * * * * * * * * * * * * * * * * * * * * * * * * //
Create time

Create mesh for time = 0


PISO: Operating solver in PISO mode

Reading transportProperties

Reading field p

Reading field U

Reading/calculating face flux field phi


Starting time loop

Time = 2.5e-05

Courant Number mean: 0 max: 0
DILUPBiCGStab:  Solving for Ux, Initial residual = 1, Final residual = 0.00118713, No Iterations 5
DILUPBiCGStab:  Solving for Uy:  solution singularity
DILUPBiCGStab:  Solving for Uz:  solution singularity
linear solve U 11135706
[OGL LOG][lduLduBase.H:113] Initialising OGL
	OGL commit:  655b9fe+
	Branch: distributed-update 
	Ginkgo version: 1.5.0 ( develop)
	Ginkgo commit: 33f63e9
	MPI is GPU aware: 1
	Forces host buffer based communication: 0
	CPU ranks per GPU: 1
	Matrix format: Coo
	End OGL_INFO
[OGL LOG][Proc: 0]global_index_init: 0.024 [ms]
[OGL LOG][Proc: 0]p_local_cols: call_init: 0.001 [ms]
[OGL LOG][Proc: 0]p_local_rows: call_init: 0 [ms]
[OGL LOG][Proc: 0]p_local_ldu_map: call_init: 0 [ms]
[OGL LOG][Proc: 0]p_local_coeffs: call_init: 0 [ms]
[OGL LOG][Proc: 0]p_non_local_cols: call_init: 0 [ms]
[OGL LOG][Proc: 0]p_non_local_rows: call_init: 0 [ms]
[OGL LOG][Proc: 0]p_non_local_ldu_map: call_init: 0 [ms]
[OGL LOG][Proc: 0]p_non_local_coeffs: call_init: 0 [ms]
[OGL LOG][Proc: 0]init_local_sparsity_pattern: 2825.38 [ms]
[OGL LOG][Proc: 0]init_non_local_sparsity_pattern: 155.004 [ms]
[OGL LOG][Proc: 0]update_local_matrix_data: 609.245 [ms]
[OGL LOG][Proc: 0]update_non_local_matrix_data: 1.703 [ms]
[OGL LOG][Proc: 0]device_partition: call_init: 0 [ms]
[OGL LOG][Proc: 0]p_matrix: call_init: 0 [ms]
[OGL LOG][Proc: 0]p_rhs: call_init: 0 [ms]
[OGL LOG][Proc: 0]p_solution: call_init: 0 [ms]
[OGL LOG][Proc: 0]init_precond: 0.056 [ms]
[OGL LOG][StoppingCriterion.H:588] Creating stopping criterion with minIter 0 frequency 10
[OGL LOG][Proc: 0]generate_solver: 0.015 [ms]
[OGL LOG][Proc: 0]solve: 12658.1 [ms]
[OGL LOG][Proc: 0]copy_x_back: 48.826 [ms]
[OGL LOG][lduLduBase.H:303] 
Statistics:
	Time per iteration: 3881 [mu s]
	Time per residual norm calculation: 232.000000 [mu s]
	Time per iteration and DOF: 0.060641 [ns]
	Retrieve results bandwith 2.621000 [GByte/s]
nonecudaGKOCG:  Solving for p, Initial residual = 1, Final residual = 9.31958e-05, No Iterations 3261
linear solve p 19899940
time step continuity errors : sum local = 2.24692e-10, global = 2.98041e-23, cumulative = 2.98041e-23
[OGL LOG][Proc: 0]global_index_init: 0.011 [ms]
[OGL LOG][Proc: 0]p_local_coeffs: call_update: 0.001 [ms]
[OGL LOG][Proc: 0]p_non_local_coeffs: call_update: 0 [ms]
[OGL LOG][Proc: 0]update_local_matrix_data: 558.54 [ms]
[OGL LOG][Proc: 0]update_non_local_matrix_data: 2.141 [ms]
[OGL LOG][Proc: 0]p_matrix: call_update: 128.292 [ms]
[OGL LOG][Proc: 0]p_rhs: call_update: 56.227 [ms]
[OGL LOG][Proc: 0]init_precond: 0.037 [ms]
[OGL LOG][StoppingCriterion.H:588] Creating stopping criterion with minIter 1956 frequency 10
[OGL LOG][Proc: 0]generate_solver: 0.001 [ms]
[OGL LOG][Proc: 0]solve: 12478.9 [ms]
[OGL LOG][Proc: 0]copy_x_back: 107.805 [ms]
[OGL LOG][lduLduBase.H:303] 
Statistics:
	Time per iteration: 3850 [mu s]
	Time per residual norm calculation: 184.000000 [mu s]
	Time per iteration and DOF: 0.060156 [ns]
	Retrieve results bandwith 1.187000 [GByte/s]
nonecudaGKOCG:  Solving for p, Initial residual = 0.716144, Final residual = 9.36609e-05, No Iterations 3241
linear solve p 13430213
time step continuity errors : sum local = 3.04717e-10, global = 2.78543e-23, cumulative = 5.76584e-23
ExecutionTime = 115.52 s  ClockTime = 117 s

Time = 5e-05

Courant Number mean: 0.00116777 max: 0.0751289
DILUPBiCGStab:  Solving for Ux, Initial residual = 0.159858, Final residual = 0.000699206, No Iterations 5
DILUPBiCGStab:  Solving for Uy, Initial residual = 0.348607, Final residual = 0.000549934, No Iterations 5
DILUPBiCGStab:  Solving for Uz, Initial residual = 0.997107, Final residual = 0.00258432, No Iterations 5
linear solve U 22375305
[OGL LOG][Proc: 0]global_index_init: 0.011 [ms]
[OGL LOG][Proc: 0]p_local_coeffs: call_update: 0 [ms]
[OGL LOG][Proc: 0]p_non_local_coeffs: call_update: 0 [ms]
[OGL LOG][Proc: 0]update_local_matrix_data: 564.412 [ms]
[OGL LOG][Proc: 0]update_non_local_matrix_data: 1.317 [ms]
[OGL LOG][Proc: 0]p_matrix: call_update: 128.319 [ms]
[OGL LOG][Proc: 0]p_rhs: call_update: 55.882 [ms]
[OGL LOG][Proc: 0]init_precond: 0.025 [ms]
[OGL LOG][StoppingCriterion.H:588] Creating stopping criterion with minIter 1944 frequency 10
[OGL LOG][Proc: 0]generate_solver: 0.001 [ms]
[OGL LOG][Proc: 0]solve: 12249.2 [ms]
[OGL LOG][Proc: 0]copy_x_back: 107.621 [ms]
[OGL LOG][lduLduBase.H:303] 
Statistics:
	Time per iteration: 3850 [mu s]
	Time per residual norm calculation: 182.000000 [mu s]
	Time per iteration and DOF: 0.060156 [ns]
	Retrieve results bandwith 1.189000 [GByte/s]
nonecudaGKOCG:  Solving for p, Initial residual = 0.654901, Final residual = 9.89118e-05, No Iterations 3181
linear solve p 13202988
time step continuity errors : sum local = 3.4732e-10, global = -2.46246e-23, cumulative = 3.30338e-23
[OGL LOG][Proc: 0]global_index_init: 0.01 [ms]
[OGL LOG][Proc: 0]p_local_coeffs: call_update: 0 [ms]
[OGL LOG][Proc: 0]p_non_local_coeffs: call_update: 0 [ms]
[OGL LOG][Proc: 0]update_local_matrix_data: 558.943 [ms]
[OGL LOG][Proc: 0]update_non_local_matrix_data: 1.26 [ms]
[OGL LOG][Proc: 0]p_matrix: call_update: 128.418 [ms]
[OGL LOG][Proc: 0]p_rhs: call_update: 56.89 [ms]
[OGL LOG][Proc: 0]init_precond: 0.025 [ms]
[OGL LOG][StoppingCriterion.H:588] Creating stopping criterion with minIter 1908 frequency 10
[OGL LOG][Proc: 0]generate_solver: 0.001 [ms]
[OGL LOG][Proc: 0]solve: 12249.6 [ms]
[OGL LOG][Proc: 0]copy_x_back: 108.131 [ms]
[OGL LOG][lduLduBase.H:303] 
Statistics:
	Time per iteration: 3850 [mu s]
	Time per residual norm calculation: 177.000000 [mu s]
	Time per iteration and DOF: 0.060156 [ns]
	Retrieve results bandwith 1.183000 [GByte/s]
nonecudaGKOCG:  Solving for p, Initial residual = 0.580434, Final residual = 8.79467e-05, No Iterations 3181
linear solve p 13201241
time step continuity errors : sum local = 3.1414e-10, global = 1.99824e-23, cumulative = 5.30163e-23
ExecutionTime = 179.94 s  ClockTime = 182 s

Time = 7.5e-05

Courant Number mean: 0.00178106 max: 0.0870165
DILUPBiCGStab:  Solving for Ux, Initial residual = 0.0661404, Final residual = 0.000197638, No Iterations 5
DILUPBiCGStab:  Solving for Uy, Initial residual = 0.138167, Final residual = 0.00013921, No Iterations 5
DILUPBiCGStab:  Solving for Uz, Initial residual = 0.430371, Final residual = 0.00127383, No Iterations 5
linear solve U 22361234
[OGL LOG][Proc: 0]global_index_init: 0.011 [ms]
[OGL LOG][Proc: 0]p_local_coeffs: call_update: 0 [ms]
[OGL LOG][Proc: 0]p_non_local_coeffs: call_update: 0 [ms]
[OGL LOG][Proc: 0]update_local_matrix_data: 564.605 [ms]
[OGL LOG][Proc: 0]update_non_local_matrix_data: 1.332 [ms]
[OGL LOG][Proc: 0]p_matrix: call_update: 128.008 [ms]
[OGL LOG][Proc: 0]p_rhs: call_update: 56.001 [ms]
[OGL LOG][Proc: 0]init_precond: 0.026 [ms]
[OGL LOG][StoppingCriterion.H:588] Creating stopping criterion with minIter 1908 frequency 10
[OGL LOG][Proc: 0]generate_solver: 0.001 [ms]
[OGL LOG][Proc: 0]solve: 12096.4 [ms]
[OGL LOG][Proc: 0]copy_x_back: 108.245 [ms]
[OGL LOG][lduLduBase.H:303] 
Statistics:
	Time per iteration: 3851 [mu s]
	Time per residual norm calculation: 177.000000 [mu s]
	Time per iteration and DOF: 0.060172 [ns]
	Retrieve results bandwith 1.182000 [GByte/s]
nonecudaGKOCG:  Solving for p, Initial residual = 0.556817, Final residual = 9.11416e-05, No Iterations 3141
linear solve p 13050851
time step continuity errors : sum local = 2.3056e-10, global = -3.88439e-23, cumulative = 1.41724e-23
[OGL LOG][Proc: 0]global_index_init: 0.011 [ms]
[OGL LOG][Proc: 0]p_local_coeffs: call_update: 0 [ms]
[OGL LOG][Proc: 0]p_non_local_coeffs: call_update: 0 [ms]
[OGL LOG][Proc: 0]update_local_matrix_data: 558.712 [ms]
[OGL LOG][Proc: 0]update_non_local_matrix_data: 1.247 [ms]
[OGL LOG][Proc: 0]p_matrix: call_update: 128.223 [ms]
[OGL LOG][Proc: 0]p_rhs: call_update: 56.193 [ms]
[OGL LOG][Proc: 0]init_precond: 0.03 [ms]
[OGL LOG][StoppingCriterion.H:588] Creating stopping criterion with minIter 1884 frequency 10
[OGL LOG][Proc: 0]generate_solver: 0.002 [ms]
[OGL LOG][Proc: 0]solve: 12056.6 [ms]
[OGL LOG][Proc: 0]copy_x_back: 108.097 [ms]
[OGL LOG][lduLduBase.H:303] 
Statistics:
	Time per iteration: 3850 [mu s]
	Time per residual norm calculation: 181.000000 [mu s]
	Time per iteration and DOF: 0.060156 [ns]
	Retrieve results bandwith 1.184000 [GByte/s]
nonecudaGKOCG:  Solving for p, Initial residual = 0.499724, Final residual = 9.27288e-05, No Iterations 3131
linear solve p 13006338
time step continuity errors : sum local = 2.29723e-10, global = -5.02095e-23, cumulative = -3.60371e-23
ExecutionTime = 244.02 s  ClockTime = 246 s

Time = 0.0001

Courant Number mean: 0.00220834 max: 0.0903159
DILUPBiCGStab:  Solving for Ux, Initial residual = 0.0436882, Final residual = 8.494e-05, No Iterations 5
DILUPBiCGStab:  Solving for Uy, Initial residual = 0.0871973, Final residual = 5.74906e-05, No Iterations 5
DILUPBiCGStab:  Solving for Uz, Initial residual = 0.13237, Final residual = 0.000247876, No Iterations 5
linear solve U 22476026
[OGL LOG][Proc: 0]global_index_init: 0.012 [ms]
[OGL LOG][Proc: 0]p_local_coeffs: call_update: 0 [ms]
[OGL LOG][Proc: 0]p_non_local_coeffs: call_update: 0 [ms]
[OGL LOG][Proc: 0]update_local_matrix_data: 565.811 [ms]
[OGL LOG][Proc: 0]update_non_local_matrix_data: 2.161 [ms]
[OGL LOG][Proc: 0]p_matrix: call_update: 128.166 [ms]
[OGL LOG][Proc: 0]p_rhs: call_update: 55.964 [ms]
[OGL LOG][Proc: 0]init_precond: 0.028 [ms]
[OGL LOG][StoppingCriterion.H:588] Creating stopping criterion with minIter 1878 frequency 10
[OGL LOG][Proc: 0]generate_solver: 0.001 [ms]
[OGL LOG][Proc: 0]solve: 11941.5 [ms]
[OGL LOG][Proc: 0]copy_x_back: 107.846 [ms]
[OGL LOG][lduLduBase.H:303] 
Statistics:
	Time per iteration: 3850 [mu s]
	Time per residual norm calculation: 186.000000 [mu s]
	Time per iteration and DOF: 0.060156 [ns]
	Retrieve results bandwith 1.186000 [GByte/s]
nonecudaGKOCG:  Solving for p, Initial residual = 0.32007, Final residual = 9.01597e-05, No Iterations 3101
linear solve p 12898712
time step continuity errors : sum local = 1.94022e-10, global = 2.06318e-23, cumulative = -1.54054e-23
[OGL LOG][Proc: 0]global_index_init: 0.011 [ms]
[OGL LOG][Proc: 0]p_local_coeffs: call_update: 0 [ms]
[OGL LOG][Proc: 0]p_non_local_coeffs: call_update: 0 [ms]
[OGL LOG][Proc: 0]update_local_matrix_data: 556.279 [ms]
[OGL LOG][Proc: 0]update_non_local_matrix_data: 1.197 [ms]
[OGL LOG][Proc: 0]p_matrix: call_update: 129.116 [ms]
[OGL LOG][Proc: 0]p_rhs: call_update: 56.726 [ms]
[OGL LOG][Proc: 0]init_precond: 0.023 [ms]
[OGL LOG][StoppingCriterion.H:588] Creating stopping criterion with minIter 1860 frequency 10
[OGL LOG][Proc: 0]generate_solver: 0.001 [ms]
[OGL LOG][Proc: 0]solve: 11906.1 [ms]
[OGL LOG][Proc: 0]copy_x_back: 108.973 [ms]
[OGL LOG][lduLduBase.H:303] 
Statistics:
	Time per iteration: 3851 [mu s]
	Time per residual norm calculation: 177.000000 [mu s]
	Time per iteration and DOF: 0.060172 [ns]
	Retrieve results bandwith 1.174000 [GByte/s]
nonecudaGKOCG:  Solving for p, Initial residual = 0.265625, Final residual = 9.75647e-05, No Iterations 3091
linear solve p 12856174
time step continuity errors : sum local = 2.11519e-10, global = 1.83037e-23, cumulative = 2.89834e-24
ExecutionTime = 307.97 s  ClockTime = 310 s

Time = 0.000125

Courant Number mean: 0.00255413 max: 0.0919042
DILUPBiCGStab:  Solving for Ux, Initial residual = 0.0332573, Final residual = 5.10925e-05, No Iterations 5
DILUPBiCGStab:  Solving for Uy, Initial residual = 0.0629923, Final residual = 3.67502e-05, No Iterations 5
DILUPBiCGStab:  Solving for Uz, Initial residual = 0.0877208, Final residual = 0.000132377, No Iterations 5
linear solve U 22443655
[OGL LOG][Proc: 0]global_index_init: 0.011 [ms]
[OGL LOG][Proc: 0]p_local_coeffs: call_update: 0 [ms]
[OGL LOG][Proc: 0]p_non_local_coeffs: call_update: 0 [ms]
[OGL LOG][Proc: 0]update_local_matrix_data: 565.612 [ms]
[OGL LOG][Proc: 0]update_non_local_matrix_data: 2.121 [ms]
[OGL LOG][Proc: 0]p_matrix: call_update: 128.196 [ms]
[OGL LOG][Proc: 0]p_rhs: call_update: 56.65 [ms]
[OGL LOG][Proc: 0]init_precond: 0.027 [ms]
[OGL LOG][StoppingCriterion.H:588] Creating stopping criterion with minIter 1854 frequency 10
[OGL LOG][Proc: 0]generate_solver: 0.001 [ms]
[OGL LOG][Proc: 0]solve: 11558.4 [ms]
[OGL LOG][Proc: 0]copy_x_back: 108.528 [ms]
[OGL LOG][lduLduBase.H:303] 
Statistics:
	Time per iteration: 3851 [mu s]
	Time per residual norm calculation: 184.000000 [mu s]
	Time per iteration and DOF: 0.060172 [ns]
	Retrieve results bandwith 1.179000 [GByte/s]
nonecudaGKOCG:  Solving for p, Initial residual = 0.213886, Final residual = 8.69368e-05, No Iterations 3001
linear solve p 12516192
time step continuity errors : sum local = 1.65825e-10, global = -5.14874e-23, cumulative = -4.8589e-23
[OGL LOG][Proc: 0]global_index_init: 0.011 [ms]
[OGL LOG][Proc: 0]p_local_coeffs: call_update: 0 [ms]
[OGL LOG][Proc: 0]p_non_local_coeffs: call_update: 0 [ms]
[OGL LOG][Proc: 0]update_local_matrix_data: 558.081 [ms]
[OGL LOG][Proc: 0]update_non_local_matrix_data: 1.313 [ms]
[OGL LOG][Proc: 0]p_matrix: call_update: 128.453 [ms]
[OGL LOG][Proc: 0]p_rhs: call_update: 56.443 [ms]
[OGL LOG][Proc: 0]init_precond: 0.025 [ms]
[OGL LOG][StoppingCriterion.H:588] Creating stopping criterion with minIter 1800 frequency 10
[OGL LOG][Proc: 0]generate_solver: 0.001 [ms]
[OGL LOG][Proc: 0]solve: 11523.2 [ms]
[OGL LOG][Proc: 0]copy_x_back: 108.062 [ms]
[OGL LOG][lduLduBase.H:303] 
Statistics:
	Time per iteration: 3852 [mu s]
	Time per residual norm calculation: 189.000000 [mu s]
	Time per iteration and DOF: 0.060187 [ns]
	Retrieve results bandwith 1.184000 [GByte/s]
nonecudaGKOCG:  Solving for p, Initial residual = 0.180127, Final residual = 9.77268e-05, No Iterations 2991
linear solve p 12488733
time step continuity errors : sum local = 1.85663e-10, global = 1.74069e-23, cumulative = -3.11821e-23
ExecutionTime = 371.26 s  ClockTime = 373 s

Time = 0.00015

Courant Number mean: 0.00284935 max: 0.0928888
DILUPBiCGStab:  Solving for Ux, Initial residual = 0.0270451, Final residual = 3.35963e-05, No Iterations 5
DILUPBiCGStab:  Solving for Uy, Initial residual = 0.049493, Final residual = 1.56879e-05, No Iterations 5
DILUPBiCGStab:  Solving for Uz, Initial residual = 0.0765173, Final residual = 9.86292e-05, No Iterations 5
linear solve U 22371035
[OGL LOG][Proc: 0]global_index_init: 0.85 [ms]
[OGL LOG][Proc: 0]p_local_coeffs: call_update: 0 [ms]
[OGL LOG][Proc: 0]p_non_local_coeffs: call_update: 0 [ms]
[OGL LOG][Proc: 0]update_local_matrix_data: 565.773 [ms]
[OGL LOG][Proc: 0]update_non_local_matrix_data: 2.096 [ms]
[OGL LOG][Proc: 0]p_matrix: call_update: 128.236 [ms]
[OGL LOG][Proc: 0]p_rhs: call_update: 56.155 [ms]
[OGL LOG][Proc: 0]init_precond: 0.026 [ms]
[OGL LOG][StoppingCriterion.H:588] Creating stopping criterion with minIter 1794 frequency 10
[OGL LOG][Proc: 0]generate_solver: 0.001 [ms]
[OGL LOG][Proc: 0]solve: 7317.14 [ms]
[OGL LOG][Proc: 0]copy_x_back: 107.677 [ms]
[OGL LOG][lduLduBase.H:303] 
Statistics:
	Time per iteration: 3849 [mu s]
	Time per residual norm calculation: 184.000000 [mu s]
	Time per iteration and DOF: 0.060141 [ns]
	Retrieve results bandwith 1.188000 [GByte/s]
nonecudaGKOCG:  Solving for p, Initial residual = 0.127235, Final residual = 9.73944e-05, No Iterations 1901
linear solve p 8290095
time step continuity errors : sum local = 1.86444e-10, global = 3.28249e-23, cumulative = 1.64271e-24
[OGL LOG][Proc: 0]global_index_init: 0.011 [ms]
[OGL LOG][Proc: 0]p_local_coeffs: call_update: 0 [ms]
[OGL LOG][Proc: 0]p_non_local_coeffs: call_update: 0 [ms]
[OGL LOG][Proc: 0]update_local_matrix_data: 560.315 [ms]
[OGL LOG][Proc: 0]update_non_local_matrix_data: 2.136 [ms]
[OGL LOG][Proc: 0]p_matrix: call_update: 127.84 [ms]
[OGL LOG][Proc: 0]p_rhs: call_update: 56.649 [ms]
[OGL LOG][Proc: 0]init_precond: 0.026 [ms]
[OGL LOG][StoppingCriterion.H:588] Creating stopping criterion with minIter 1140 frequency 10
[OGL LOG][Proc: 0]generate_solver: 0.001 [ms]
[OGL LOG][Proc: 0]solve: 5280.63 [ms]
[OGL LOG][Proc: 0]copy_x_back: 108.165 [ms]
[OGL LOG][lduLduBase.H:303] 
Statistics:
	Time per iteration: 3851 [mu s]
	Time per residual norm calculation: 179.000000 [mu s]
	Time per iteration and DOF: 0.060172 [ns]
	Retrieve results bandwith 1.183000 [GByte/s]
nonecudaGKOCG:  Solving for p, Initial residual = 0.104806, Final residual = 9.99187e-05, No Iterations 1371
linear solve p 6233701
time step continuity errors : sum local = 1.86843e-10, global = -4.15271e-24, cumulative = -2.51e-24
ExecutionTime = 423.94 s  ClockTime = 426 s

Time = 0.000175

Courant Number mean: 0.00310981 max: 0.0935747
DILUPBiCGStab:  Solving for Ux, Initial residual = 0.0228843, Final residual = 2.37576e-05, No Iterations 5
DILUPBiCGStab:  Solving for Uy, Initial residual = 0.0407567, Final residual = 1.4231e-05, No Iterations 5
DILUPBiCGStab:  Solving for Uz, Initial residual = 0.06646, Final residual = 6.45729e-05, No Iterations 5
linear solve U 22490834
[OGL LOG][Proc: 0]global_index_init: 0.011 [ms]
[OGL LOG][Proc: 0]p_local_coeffs: call_update: 0 [ms]
[OGL LOG][Proc: 0]p_non_local_coeffs: call_update: 0 [ms]
[OGL LOG][Proc: 0]update_local_matrix_data: 565.783 [ms]
[OGL LOG][Proc: 0]update_non_local_matrix_data: 2.138 [ms]
[OGL LOG][Proc: 0]p_matrix: call_update: 127.933 [ms]
[OGL LOG][Proc: 0]p_rhs: call_update: 56.318 [ms]
[OGL LOG][Proc: 0]init_precond: 0.026 [ms]
[OGL LOG][StoppingCriterion.H:588] Creating stopping criterion with minIter 822 frequency 10
[OGL LOG][Proc: 0]generate_solver: 0.001 [ms]
[OGL LOG][Proc: 0]solve: 5094.44 [ms]
[OGL LOG][Proc: 0]copy_x_back: 107.338 [ms]
[OGL LOG][lduLduBase.H:303] 
Statistics:
	Time per iteration: 3856 [mu s]
	Time per residual norm calculation: 196.000000 [mu s]
	Time per iteration and DOF: 0.060250 [ns]
	Retrieve results bandwith 1.192000 [GByte/s]
nonecudaGKOCG:  Solving for p, Initial residual = 0.0871778, Final residual = 9.61334e-05, No Iterations 1321
linear solve p 6050970
time step continuity errors : sum local = 1.72542e-10, global = 1.3812e-23, cumulative = 1.1302e-23
[OGL LOG][Proc: 0]global_index_init: 0.012 [ms]
[OGL LOG][Proc: 0]p_local_coeffs: call_update: 0 [ms]
[OGL LOG][Proc: 0]p_non_local_coeffs: call_update: 0 [ms]
[OGL LOG][Proc: 0]update_local_matrix_data: 558.791 [ms]
[OGL LOG][Proc: 0]update_non_local_matrix_data: 1.29 [ms]
[OGL LOG][Proc: 0]p_matrix: call_update: 128.873 [ms]
[OGL LOG][Proc: 0]p_rhs: call_update: 56.719 [ms]
[OGL LOG][Proc: 0]init_precond: 0.026 [ms]
[OGL LOG][StoppingCriterion.H:588] Creating stopping criterion with minIter 792 frequency 10
[OGL LOG][Proc: 0]generate_solver: 0.001 [ms]
[OGL LOG][Proc: 0]solve: 5095.76 [ms]
[OGL LOG][Proc: 0]copy_x_back: 108.135 [ms]
[OGL LOG][lduLduBase.H:303] 
Statistics:
	Time per iteration: 3857 [mu s]
	Time per residual norm calculation: 182.000000 [mu s]
	Time per iteration and DOF: 0.060266 [ns]
	Retrieve results bandwith 1.183000 [GByte/s]
nonecudaGKOCG:  Solving for p, Initial residual = 0.0725996, Final residual = 9.32322e-05, No Iterations 1321
linear solve p 6047084
time step continuity errors : sum local = 1.67385e-10, global = 2.28076e-23, cumulative = 3.41095e-23
ExecutionTime = 474.23 s  ClockTime = 477 s

Time = 0.0002

Courant Number mean: 0.00334434 max: 0.094089
DILUPBiCGStab:  Solving for Ux, Initial residual = 0.0198901, Final residual = 1.84267e-05, No Iterations 5
DILUPBiCGStab:  Solving for Uy, Initial residual = 0.0346124, Final residual = 6.60075e-06, No Iterations 5
DILUPBiCGStab:  Solving for Uz, Initial residual = 0.0585864, Final residual = 4.49959e-05, No Iterations 5
linear solve U 22498965
[OGL LOG][Proc: 0]global_index_init: 0.012 [ms]
[OGL LOG][Proc: 0]p_local_coeffs: call_update: 0 [ms]
[OGL LOG][Proc: 0]p_non_local_coeffs: call_update: 0 [ms]
[OGL LOG][Proc: 0]update_local_matrix_data: 564.52 [ms]
[OGL LOG][Proc: 0]update_non_local_matrix_data: 2.113 [ms]
[OGL LOG][Proc: 0]p_matrix: call_update: 128.417 [ms]
[OGL LOG][Proc: 0]p_rhs: call_update: 55.875 [ms]
[OGL LOG][Proc: 0]init_precond: 0.026 [ms]
[OGL LOG][StoppingCriterion.H:588] Creating stopping criterion with minIter 792 frequency 10
[OGL LOG][Proc: 0]generate_solver: 0.001 [ms]
[OGL LOG][Proc: 0]solve: 5057.7 [ms]
[OGL LOG][Proc: 0]copy_x_back: 108.024 [ms]
[OGL LOG][lduLduBase.H:303] 
Statistics:
	Time per iteration: 3857 [mu s]
	Time per residual norm calculation: 184.000000 [mu s]
	Time per iteration and DOF: 0.060266 [ns]
	Retrieve results bandwith 1.184000 [GByte/s]
nonecudaGKOCG:  Solving for p, Initial residual = 0.0555769, Final residual = 9.85401e-05, No Iterations 1311
linear solve p 6013916
time step continuity errors : sum local = 1.81134e-10, global = -5.85725e-23, cumulative = -2.44629e-23
[OGL LOG][Proc: 0]global_index_init: 0.011 [ms]
[OGL LOG][Proc: 0]p_local_coeffs: call_update: 0 [ms]
[OGL LOG][Proc: 0]p_non_local_coeffs: call_update: 0 [ms]
[OGL LOG][Proc: 0]update_local_matrix_data: 558.915 [ms]
[OGL LOG][Proc: 0]update_non_local_matrix_data: 1.354 [ms]
[OGL LOG][Proc: 0]p_matrix: call_update: 127.976 [ms]
[OGL LOG][Proc: 0]p_rhs: call_update: 56.419 [ms]
[OGL LOG][Proc: 0]init_precond: 0.024 [ms]
[OGL LOG][StoppingCriterion.H:588] Creating stopping criterion with minIter 786 frequency 10
[OGL LOG][Proc: 0]generate_solver: 0.002 [ms]
[OGL LOG][Proc: 0]solve: 5017.99 [ms]
[OGL LOG][Proc: 0]copy_x_back: 108.107 [ms]
[OGL LOG][lduLduBase.H:303] 
Statistics:
	Time per iteration: 3857 [mu s]
	Time per residual norm calculation: 179.000000 [mu s]
	Time per iteration and DOF: 0.060266 [ns]
	Retrieve results bandwith 1.184000 [GByte/s]
nonecudaGKOCG:  Solving for p, Initial residual = 0.0473371, Final residual = 9.32905e-05, No Iterations 1301
linear solve p 5968433
time step continuity errors : sum local = 1.67656e-10, global = -9.52728e-23, cumulative = -1.19736e-22
ExecutionTime = 524.43 s  ClockTime = 527 s

Time = 0.000225

Courant Number mean: 0.00355866 max: 0.0944924
DILUPBiCGStab:  Solving for Ux, Initial residual = 0.0176087, Final residual = 1.41991e-05, No Iterations 5
DILUPBiCGStab:  Solving for Uy, Initial residual = 0.0300911, Final residual = 6.63379e-06, No Iterations 5
DILUPBiCGStab:  Solving for Uz, Initial residual = 0.0520056, Final residual = 3.34501e-05, No Iterations 5
linear solve U 22507356
[OGL LOG][Proc: 0]global_index_init: 0.01 [ms]
[OGL LOG][Proc: 0]p_local_coeffs: call_update: 0 [ms]
[OGL LOG][Proc: 0]p_non_local_coeffs: call_update: 0 [ms]
[OGL LOG][Proc: 0]update_local_matrix_data: 566.605 [ms]
[OGL LOG][Proc: 0]update_non_local_matrix_data: 2.169 [ms]
[OGL LOG][Proc: 0]p_matrix: call_update: 127.914 [ms]
[OGL LOG][Proc: 0]p_rhs: call_update: 56.526 [ms]
[OGL LOG][Proc: 0]init_precond: 0.027 [ms]
[OGL LOG][StoppingCriterion.H:588] Creating stopping criterion with minIter 780 frequency 10
[OGL LOG][Proc: 0]generate_solver: 0.001 [ms]
[OGL LOG][Proc: 0]solve: 4980.28 [ms]
[OGL LOG][Proc: 0]copy_x_back: 108.668 [ms]
[OGL LOG][lduLduBase.H:303] 
Statistics:
	Time per iteration: 3857 [mu s]
	Time per residual norm calculation: 183.000000 [mu s]
	Time per iteration and DOF: 0.060266 [ns]
	Retrieve results bandwith 1.177000 [GByte/s]
nonecudaGKOCG:  Solving for p, Initial residual = 0.0410797, Final residual = 9.44077e-05, No Iterations 1291
linear solve p 5946174
time step continuity errors : sum local = 1.67481e-10, global = 6.11758e-24, cumulative = -1.13618e-22
[OGL LOG][Proc: 0]global_index_init: 0.012 [ms]
[OGL LOG][Proc: 0]p_local_coeffs: call_update: 0 [ms]
[OGL LOG][Proc: 0]p_non_local_coeffs: call_update: 0 [ms]
[OGL LOG][Proc: 0]update_local_matrix_data: 558.911 [ms]
[OGL LOG][Proc: 0]update_non_local_matrix_data: 1.277 [ms]
[OGL LOG][Proc: 0]p_matrix: call_update: 127.966 [ms]
[OGL LOG][Proc: 0]p_rhs: call_update: 56.355 [ms]
[OGL LOG][Proc: 0]init_precond: 0.025 [ms]
[OGL LOG][StoppingCriterion.H:588] Creating stopping criterion with minIter 774 frequency 10
[OGL LOG][Proc: 0]generate_solver: 0.001 [ms]
[OGL LOG][Proc: 0]solve: 4941.17 [ms]
[OGL LOG][Proc: 0]copy_x_back: 108.332 [ms]
[OGL LOG][lduLduBase.H:303] 
Statistics:
	Time per iteration: 3857 [mu s]
	Time per residual norm calculation: 182.000000 [mu s]
	Time per iteration and DOF: 0.060266 [ns]
	Retrieve results bandwith 1.181000 [GByte/s]
nonecudaGKOCG:  Solving for p, Initial residual = 0.0352495, Final residual = 9.7432e-05, No Iterations 1281
linear solve p 5891542
time step continuity errors : sum local = 1.71159e-10, global = 6.26704e-23, cumulative = -5.09477e-23
ExecutionTime = 574.49 s  ClockTime = 577 s

Time = 0.00025

Courant Number mean: 0.00375674 max: 0.0948202
DILUPBiCGStab:  Solving for Ux, Initial residual = 0.0158193, Final residual = 1.15632e-05, No Iterations 5
DILUPBiCGStab:  Solving for Uy, Initial residual = 0.0265862, Final residual = 4.0551e-06, No Iterations 5
DILUPBiCGStab:  Solving for Uz, Initial residual = 0.0474135, Final residual = 2.5616e-05, No Iterations 5
linear solve U 22445880
[OGL LOG][Proc: 0]global_index_init: 0.012 [ms]
[OGL LOG][Proc: 0]p_local_coeffs: call_update: 0 [ms]
[OGL LOG][Proc: 0]p_non_local_coeffs: call_update: 0 [ms]
[OGL LOG][Proc: 0]update_local_matrix_data: 567.734 [ms]
[OGL LOG][Proc: 0]update_non_local_matrix_data: 2.15 [ms]
[OGL LOG][Proc: 0]p_matrix: call_update: 128.116 [ms]
[OGL LOG][Proc: 0]p_rhs: call_update: 56.113 [ms]
[OGL LOG][Proc: 0]init_precond: 0.028 [ms]
[OGL LOG][StoppingCriterion.H:588] Creating stopping criterion with minIter 768 frequency 10
[OGL LOG][Proc: 0]generate_solver: 0.001 [ms]
[OGL LOG][Proc: 0]solve: 5057.45 [ms]
[OGL LOG][Proc: 0]copy_x_back: 107.824 [ms]
[OGL LOG][lduLduBase.H:303] 
Statistics:
	Time per iteration: 3857 [mu s]
	Time per residual norm calculation: 185.000000 [mu s]
	Time per iteration and DOF: 0.060266 [ns]
	Retrieve results bandwith 1.187000 [GByte/s]
nonecudaGKOCG:  Solving for p, Initial residual = 0.0294395, Final residual = 9.9711e-05, No Iterations 1311
linear solve p 6016690
time step continuity errors : sum local = 1.82171e-10, global = -9.30423e-23, cumulative = -1.4399e-22
[OGL LOG][Proc: 0]global_index_init: 0.01 [ms]
[OGL LOG][Proc: 0]p_local_coeffs: call_update: 0 [ms]
[OGL LOG][Proc: 0]p_non_local_coeffs: call_update: 0 [ms]
[OGL LOG][Proc: 0]update_local_matrix_data: 558.24 [ms]
[OGL LOG][Proc: 0]update_non_local_matrix_data: 1.31 [ms]
[OGL LOG][Proc: 0]p_matrix: call_update: 127.993 [ms]
[OGL LOG][Proc: 0]p_rhs: call_update: 56.631 [ms]
[OGL LOG][Proc: 0]init_precond: 0.025 [ms]
[OGL LOG][StoppingCriterion.H:588] Creating stopping criterion with minIter 786 frequency 10
[OGL LOG][Proc: 0]generate_solver: 0.001 [ms]
[OGL LOG][Proc: 0]solve: 4940.74 [ms]
[OGL LOG][Proc: 0]copy_x_back: 108.476 [ms]
[OGL LOG][lduLduBase.H:303] 
Statistics:
	Time per iteration: 3856 [mu s]
	Time per residual norm calculation: 179.000000 [mu s]
	Time per iteration and DOF: 0.060250 [ns]
	Retrieve results bandwith 1.179000 [GByte/s]
nonecudaGKOCG:  Solving for p, Initial residual = 0.0259403, Final residual = 9.58588e-05, No Iterations 1281
linear solve p 5890742
time step continuity errors : sum local = 1.70734e-10, global = -9.2431e-24, cumulative = -1.53233e-22
ExecutionTime = 624.62 s  ClockTime = 627 s

Time = 0.000275

Courant Number mean: 0.00394124 max: 0.0950931
DILUPBiCGStab:  Solving for Ux, Initial residual = 0.0143638, Final residual = 9.4183e-06, No Iterations 5
DILUPBiCGStab:  Solving for Uy, Initial residual = 0.0238268, Final residual = 3.84382e-06, No Iterations 5
DILUPBiCGStab:  Solving for Uz, Initial residual = 0.043216, Final residual = 2.1946e-05, No Iterations 5
linear solve U 22432969
[OGL LOG][Proc: 0]global_index_init: 0.01 [ms]
[OGL LOG][Proc: 0]p_local_coeffs: call_update: 0 [ms]
[OGL LOG][Proc: 0]p_non_local_coeffs: call_update: 0 [ms]
[OGL LOG][Proc: 0]update_local_matrix_data: 568.26 [ms]
[OGL LOG][Proc: 0]update_non_local_matrix_data: 2.177 [ms]
[OGL LOG][Proc: 0]p_matrix: call_update: 127.915 [ms]
[OGL LOG][Proc: 0]p_rhs: call_update: 56.167 [ms]
[OGL LOG][Proc: 0]init_precond: 0.028 [ms]
[OGL LOG][StoppingCriterion.H:588] Creating stopping criterion with minIter 768 frequency 10
[OGL LOG][Proc: 0]generate_solver: 0.001 [ms]
[OGL LOG][Proc: 0]solve: 5288.03 [ms]
[OGL LOG][Proc: 0]copy_x_back: 108.203 [ms]
[OGL LOG][lduLduBase.H:303] 
Statistics:
	Time per iteration: 3857 [mu s]
	Time per residual norm calculation: 185.000000 [mu s]
	Time per iteration and DOF: 0.060266 [ns]
	Retrieve results bandwith 1.182000 [GByte/s]
nonecudaGKOCG:  Solving for p, Initial residual = 0.0235339, Final residual = 8.80578e-05, No Iterations 1371
linear solve p 6247612
time step continuity errors : sum local = 1.57261e-10, global = -6.31242e-24, cumulative = -1.59546e-22
[OGL LOG][Proc: 0]global_index_init: 0.011 [ms]
[OGL LOG][Proc: 0]p_local_coeffs: call_update: 0 [ms]
[OGL LOG][Proc: 0]p_non_local_coeffs: call_update: 0 [ms]
[OGL LOG][Proc: 0]update_local_matrix_data: 559.096 [ms]
[OGL LOG][Proc: 0]update_non_local_matrix_data: 1.339 [ms]
[OGL LOG][Proc: 0]p_matrix: call_update: 128.199 [ms]
[OGL LOG][Proc: 0]p_rhs: call_update: 57.021 [ms]
[OGL LOG][Proc: 0]init_precond: 0.025 [ms]
[OGL LOG][StoppingCriterion.H:588] Creating stopping criterion with minIter 822 frequency 10
[OGL LOG][Proc: 0]generate_solver: 0.001 [ms]
[OGL LOG][Proc: 0]solve: 5212.63 [ms]
[OGL LOG][Proc: 0]copy_x_back: 107.856 [ms]
[OGL LOG][lduLduBase.H:303] 
Statistics:
	Time per iteration: 3858 [mu s]
	Time per residual norm calculation: 180.000000 [mu s]
	Time per iteration and DOF: 0.060281 [ns]
	Retrieve results bandwith 1.186000 [GByte/s]
nonecudaGKOCG:  Solving for p, Initial residual = 0.0210677, Final residual = 9.75639e-05, No Iterations 1351
linear solve p 6164095
time step continuity errors : sum local = 1.70389e-10, global = -3.20062e-23, cumulative = -1.91552e-22
ExecutionTime = 675.24 s  ClockTime = 678 s

Time = 0.0003

Courant Number mean: 0.00411426 max: 0.095325
DILUPBiCGStab:  Solving for Ux, Initial residual = 0.0131668, Final residual = 7.83788e-06, No Iterations 5
DILUPBiCGStab:  Solving for Uy, Initial residual = 0.0215614, Final residual = 2.91777e-06, No Iterations 5
DILUPBiCGStab:  Solving for Uz, Initial residual = 0.0399908, Final residual = 1.83857e-05, No Iterations 5
linear solve U 22431787
[OGL LOG][Proc: 0]global_index_init: 0.012 [ms]
[OGL LOG][Proc: 0]p_local_coeffs: call_update: 0 [ms]
[OGL LOG][Proc: 0]p_non_local_coeffs: call_update: 0 [ms]
[OGL LOG][Proc: 0]update_local_matrix_data: 566.266 [ms]
[OGL LOG][Proc: 0]update_non_local_matrix_data: 2.133 [ms]
[OGL LOG][Proc: 0]p_matrix: call_update: 128.159 [ms]
[OGL LOG][Proc: 0]p_rhs: call_update: 56.428 [ms]
[OGL LOG][Proc: 0]init_precond: 0.027 [ms]
[OGL LOG][StoppingCriterion.H:588] Creating stopping criterion with minIter 810 frequency 10
[OGL LOG][Proc: 0]generate_solver: 0.001 [ms]
[OGL LOG][Proc: 0]solve: 5210.31 [ms]
[OGL LOG][Proc: 0]copy_x_back: 107.929 [ms]
[OGL LOG][lduLduBase.H:303] 
Statistics:
	Time per iteration: 3856 [mu s]
	Time per residual norm calculation: 186.000000 [mu s]
	Time per iteration and DOF: 0.060250 [ns]
	Retrieve results bandwith 1.185000 [GByte/s]
nonecudaGKOCG:  Solving for p, Initial residual = 0.0185696, Final residual = 9.88216e-05, No Iterations 1351
linear solve p 6167777
time step continuity errors : sum local = 1.81997e-10, global = 2.65732e-24, cumulative = -1.88894e-22
[OGL LOG][Proc: 0]global_index_init: 0.01 [ms]
[OGL LOG][Proc: 0]p_local_coeffs: call_update: 0 [ms]
[OGL LOG][Proc: 0]p_non_local_coeffs: call_update: 0 [ms]
[OGL LOG][Proc: 0]update_local_matrix_data: 558.893 [ms]
[OGL LOG][Proc: 0]update_non_local_matrix_data: 1.343 [ms]
[OGL LOG][Proc: 0]p_matrix: call_update: 128.363 [ms]
[OGL LOG][Proc: 0]p_rhs: call_update: 56.561 [ms]
[OGL LOG][Proc: 0]init_precond: 0.028 [ms]
[OGL LOG][StoppingCriterion.H:588] Creating stopping criterion with minIter 810 frequency 10
[OGL LOG][Proc: 0]generate_solver: 0.001 [ms]
[OGL LOG][Proc: 0]solve: 4751.95 [ms]
[OGL LOG][Proc: 0]copy_x_back: 108.357 [ms]
[OGL LOG][lduLduBase.H:303] 
Statistics:
	Time per iteration: 3860 [mu s]
	Time per residual norm calculation: 177.000000 [mu s]
	Time per iteration and DOF: 0.060312 [ns]
	Retrieve results bandwith 1.181000 [GByte/s]
nonecudaGKOCG:  Solving for p, Initial residual = 0.017074, Final residual = 9.70508e-05, No Iterations 1231
linear solve p 5703448
time step continuity errors : sum local = 1.73102e-10, global = 1.68961e-23, cumulative = -1.71998e-22
ExecutionTime = 725.31 s  ClockTime = 728 s

Time = 0.000325

Courant Number mean: 0.00427751 max: 0.0955252
DILUPBiCGStab:  Solving for Ux, Initial residual = 0.0121508, Final residual = 6.56297e-06, No Iterations 5
DILUPBiCGStab:  Solving for Uy, Initial residual = 0.0197034, Final residual = 2.67681e-06, No Iterations 5
DILUPBiCGStab:  Solving for Uz, Initial residual = 0.0368226, Final residual = 1.75793e-05, No Iterations 5
linear solve U 22394675
[OGL LOG][Proc: 0]global_index_init: 0.011 [ms]
[OGL LOG][Proc: 0]p_local_coeffs: call_update: 0 [ms]
[OGL LOG][Proc: 0]p_non_local_coeffs: call_update: 0 [ms]
[OGL LOG][Proc: 0]update_local_matrix_data: 566.746 [ms]
[OGL LOG][Proc: 0]update_non_local_matrix_data: 2.203 [ms]
[OGL LOG][Proc: 0]p_matrix: call_update: 128.051 [ms]
[OGL LOG][Proc: 0]p_rhs: call_update: 55.784 [ms]
[OGL LOG][Proc: 0]init_precond: 0.027 [ms]
[OGL LOG][StoppingCriterion.H:588] Creating stopping criterion with minIter 738 frequency 10
[OGL LOG][Proc: 0]generate_solver: 0.001 [ms]
[OGL LOG][Proc: 0]solve: 5250.69 [ms]
[OGL LOG][Proc: 0]copy_x_back: 107.785 [ms]
[OGL LOG][lduLduBase.H:303] 
Statistics:
	Time per iteration: 3857 [mu s]
	Time per residual norm calculation: 185.000000 [mu s]
	Time per iteration and DOF: 0.060266 [ns]
	Retrieve results bandwith 1.187000 [GByte/s]
nonecudaGKOCG:  Solving for p, Initial residual = 0.0162109, Final residual = 9.02758e-05, No Iterations 1361
linear solve p 6207703
time step continuity errors : sum local = 1.63246e-10, global = -7.07097e-23, cumulative = -2.42708e-22
[OGL LOG][Proc: 0]global_index_init: 0.011 [ms]
[OGL LOG][Proc: 0]p_local_coeffs: call_update: 0 [ms]
[OGL LOG][Proc: 0]p_non_local_coeffs: call_update: 0 [ms]
[OGL LOG][Proc: 0]update_local_matrix_data: 558.699 [ms]
[OGL LOG][Proc: 0]update_non_local_matrix_data: 1.699 [ms]
[OGL LOG][Proc: 0]p_matrix: call_update: 127.9 [ms]
[OGL LOG][Proc: 0]p_rhs: call_update: 56.251 [ms]
[OGL LOG][Proc: 0]init_precond: 0.027 [ms]
[OGL LOG][StoppingCriterion.H:588] Creating stopping criterion with minIter 816 frequency 10
[OGL LOG][Proc: 0]generate_solver: 0.001 [ms]
[OGL LOG][Proc: 0]solve: 5138.06 [ms]
[OGL LOG][Proc: 0]copy_x_back: 108.079 [ms]
[OGL LOG][lduLduBase.H:303] 
Statistics:
	Time per iteration: 3860 [mu s]
	Time per residual norm calculation: 181.000000 [mu s]
	Time per iteration and DOF: 0.060312 [ns]
	Retrieve results bandwith 1.184000 [GByte/s]
nonecudaGKOCG:  Solving for p, Initial residual = 0.0149949, Final residual = 9.74615e-05, No Iterations 1331
linear solve p 6103854
time step continuity errors : sum local = 1.70529e-10, global = 4.20312e-23, cumulative = -2.00677e-22
ExecutionTime = 775.87 s  ClockTime = 779 s

Time = 0.00035

Courant Number mean: 0.00443218 max: 0.0957004
DILUPBiCGStab:  Solving for Ux, Initial residual = 0.0112909, Final residual = 5.56612e-06, No Iterations 5
DILUPBiCGStab:  Solving for Uy, Initial residual = 0.0181175, Final residual = 2.26552e-06, No Iterations 5
DILUPBiCGStab:  Solving for Uz, Initial residual = 0.034518, Final residual = 1.64627e-05, No Iterations 5
linear solve U 22401027
[OGL LOG][Proc: 0]global_index_init: 0.011 [ms]
[OGL LOG][Proc: 0]p_local_coeffs: call_update: 0 [ms]
[OGL LOG][Proc: 0]p_non_local_coeffs: call_update: 0 [ms]
[OGL LOG][Proc: 0]update_local_matrix_data: 565.419 [ms]
[OGL LOG][Proc: 0]update_non_local_matrix_data: 2.18 [ms]
[OGL LOG][Proc: 0]p_matrix: call_update: 127.792 [ms]
[OGL LOG][Proc: 0]p_rhs: call_update: 56.126 [ms]
[OGL LOG][Proc: 0]init_precond: 0.029 [ms]
[OGL LOG][StoppingCriterion.H:588] Creating stopping criterion with minIter 798 frequency 10
[OGL LOG][Proc: 0]generate_solver: 0.002 [ms]
[OGL LOG][Proc: 0]solve: 5290.58 [ms]
[OGL LOG][Proc: 0]copy_x_back: 107.884 [ms]
[OGL LOG][lduLduBase.H:303] 
Statistics:
	Time per iteration: 3858 [mu s]
	Time per residual norm calculation: 191.000000 [mu s]
	Time per iteration and DOF: 0.060281 [ns]
	Retrieve results bandwith 1.186000 [GByte/s]
nonecudaGKOCG:  Solving for p, Initial residual = 0.013906, Final residual = 9.17067e-05, No Iterations 1371
linear solve p 6246538
time step continuity errors : sum local = 1.72132e-10, global = -9.00935e-23, cumulative = -2.9077e-22
[OGL LOG][Proc: 0]global_index_init: 1.785 [ms]
[OGL LOG][Proc: 0]p_local_coeffs: call_update: 0 [ms]
[OGL LOG][Proc: 0]p_non_local_coeffs: call_update: 0 [ms]
[OGL LOG][Proc: 0]update_local_matrix_data: 559.02 [ms]
[OGL LOG][Proc: 0]update_non_local_matrix_data: 1.262 [ms]
[OGL LOG][Proc: 0]p_matrix: call_update: 128.306 [ms]
[OGL LOG][Proc: 0]p_rhs: call_update: 56.424 [ms]
[OGL LOG][Proc: 0]init_precond: 0.024 [ms]
[OGL LOG][StoppingCriterion.H:588] Creating stopping criterion with minIter 822 frequency 10
[OGL LOG][Proc: 0]generate_solver: 0.001 [ms]
[OGL LOG][Proc: 0]solve: 4711 [ms]
[OGL LOG][Proc: 0]copy_x_back: 108.164 [ms]
[OGL LOG][lduLduBase.H:303] 
Statistics:
	Time per iteration: 3858 [mu s]
	Time per residual norm calculation: 183.000000 [mu s]
	Time per iteration and DOF: 0.060281 [ns]
	Retrieve results bandwith 1.183000 [GByte/s]
nonecudaGKOCG:  Solving for p, Initial residual = 0.0130348, Final residual = 9.67973e-05, No Iterations 1221
linear solve p 5679588
time step continuity errors : sum local = 1.73517e-10, global = -7.51642e-23, cumulative = -3.65935e-22
ExecutionTime = 826.04 s  ClockTime = 829 s

Time = 0.000375

Courant Number mean: 0.00457926 max: 0.0958553
DILUPBiCGStab:  Solving for Ux, Initial residual = 0.010538, Final residual = 4.76292e-06, No Iterations 5
DILUPBiCGStab:  Solving for Uy, Initial residual = 0.0167837, Final residual = 2.05966e-06, No Iterations 5
DILUPBiCGStab:  Solving for Uz, Initial residual = 0.0321885, Final residual = 1.65434e-05, No Iterations 5
linear solve U 22404488
[OGL LOG][Proc: 0]global_index_init: 0.01 [ms]
[OGL LOG][Proc: 0]p_local_coeffs: call_update: 0 [ms]
[OGL LOG][Proc: 0]p_non_local_coeffs: call_update: 0 [ms]
[OGL LOG][Proc: 0]update_local_matrix_data: 566.611 [ms]
[OGL LOG][Proc: 0]update_non_local_matrix_data: 2.186 [ms]
[OGL LOG][Proc: 0]p_matrix: call_update: 127.777 [ms]
[OGL LOG][Proc: 0]p_rhs: call_update: 55.878 [ms]
[OGL LOG][Proc: 0]init_precond: 0.028 [ms]
[OGL LOG][StoppingCriterion.H:588] Creating stopping criterion with minIter 732 frequency 10
[OGL LOG][Proc: 0]generate_solver: 0.001 [ms]
[OGL LOG][Proc: 0]solve: 5213.34 [ms]
[OGL LOG][Proc: 0]copy_x_back: 108.387 [ms]
[OGL LOG][lduLduBase.H:303] 
Statistics:
	Time per iteration: 3858 [mu s]
	Time per residual norm calculation: 202.000000 [mu s]
	Time per iteration and DOF: 0.060281 [ns]
	Retrieve results bandwith 1.180000 [GByte/s]
nonecudaGKOCG:  Solving for p, Initial residual = 0.0124594, Final residual = 9.31739e-05, No Iterations 1351
linear solve p 6170588
time step continuity errors : sum local = 1.71372e-10, global = 3.65846e-23, cumulative = -3.2935e-22
[OGL LOG][Proc: 0]global_index_init: 0.01 [ms]
[OGL LOG][Proc: 0]p_local_coeffs: call_update: 0 [ms]
[OGL LOG][Proc: 0]p_non_local_coeffs: call_update: 0 [ms]
[OGL LOG][Proc: 0]update_local_matrix_data: 559.17 [ms]
[OGL LOG][Proc: 0]update_non_local_matrix_data: 1.879 [ms]
[OGL LOG][Proc: 0]p_matrix: call_update: 128.19 [ms]
[OGL LOG][Proc: 0]p_rhs: call_update: 56.323 [ms]
[OGL LOG][Proc: 0]init_precond: 0.026 [ms]
[OGL LOG][StoppingCriterion.H:588] Creating stopping criterion with minIter 810 frequency 10
[OGL LOG][Proc: 0]generate_solver: 0.001 [ms]
[OGL LOG][Proc: 0]solve: 5057.28 [ms]
[OGL LOG][Proc: 0]copy_x_back: 108.136 [ms]
[OGL LOG][lduLduBase.H:303] 
Statistics:
	Time per iteration: 3857 [mu s]
	Time per residual norm calculation: 184.000000 [mu s]
	Time per iteration and DOF: 0.060266 [ns]
	Retrieve results bandwith 1.183000 [GByte/s]
nonecudaGKOCG:  Solving for p, Initial residual = 0.0117131, Final residual = 9.53666e-05, No Iterations 1311
linear solve p 6024592
time step continuity errors : sum local = 1.67701e-10, global = 5.75366e-23, cumulative = -2.71813e-22
ExecutionTime = 876.47 s  ClockTime = 880 s

Time = 0.0004

Courant Number mean: 0.00471974 max: 0.0959935
DILUPBiCGStab:  Solving for Ux, Initial residual = 0.00988967, Final residual = 4.11809e-06, No Iterations 5
DILUPBiCGStab:  Solving for Uy, Initial residual = 0.0156091, Final residual = 1.82345e-06, No Iterations 5
DILUPBiCGStab:  Solving for Uz, Initial residual = 0.0304557, Final residual = 1.65646e-05, No Iterations 5
linear solve U 22389827
[OGL LOG][Proc: 0]global_index_init: 0.011 [ms]
[OGL LOG][Proc: 0]p_local_coeffs: call_update: 0 [ms]
[OGL LOG][Proc: 0]p_non_local_coeffs: call_update: 0 [ms]
[OGL LOG][Proc: 0]update_local_matrix_data: 567.154 [ms]
[OGL LOG][Proc: 0]update_non_local_matrix_data: 1.61 [ms]
[OGL LOG][Proc: 0]p_matrix: call_update: 128.754 [ms]
[OGL LOG][Proc: 0]p_rhs: call_update: 56.033 [ms]
[OGL LOG][Proc: 0]init_precond: 0.028 [ms]
[OGL LOG][StoppingCriterion.H:588] Creating stopping criterion with minIter 786 frequency 10
[OGL LOG][Proc: 0]generate_solver: 0.001 [ms]
[OGL LOG][Proc: 0]solve: 5327.63 [ms]
[OGL LOG][Proc: 0]copy_x_back: 108.798 [ms]
[OGL LOG][lduLduBase.H:303] 
Statistics:
	Time per iteration: 3857 [mu s]
	Time per residual norm calculation: 177.000000 [mu s]
	Time per iteration and DOF: 0.060266 [ns]
	Retrieve results bandwith 1.176000 [GByte/s]
nonecudaGKOCG:  Solving for p, Initial residual = 0.0112891, Final residual = 9.01646e-05, No Iterations 1381
linear solve p 6301698
time step continuity errors : sum local = 1.72998e-10, global = -2.46073e-23, cumulative = -2.96421e-22
[OGL LOG][Proc: 0]global_index_init: 0.011 [ms]
[OGL LOG][Proc: 0]p_local_coeffs: call_update: 0 [ms]
[OGL LOG][Proc: 0]p_non_local_coeffs: call_update: 0 [ms]
[OGL LOG][Proc: 0]update_local_matrix_data: 557.001 [ms]
[OGL LOG][Proc: 0]update_non_local_matrix_data: 2.118 [ms]
[OGL LOG][Proc: 0]p_matrix: call_update: 131.807 [ms]
[OGL LOG][Proc: 0]p_rhs: call_update: 57.527 [ms]
[OGL LOG][Proc: 0]init_precond: 0.03 [ms]
[OGL LOG][StoppingCriterion.H:588] Creating stopping criterion with minIter 828 frequency 10
[OGL LOG][Proc: 0]generate_solver: 0.002 [ms]
[OGL LOG][Proc: 0]solve: 4949.41 [ms]
[OGL LOG][Proc: 0]copy_x_back: 108.124 [ms]
[OGL LOG][lduLduBase.H:303] 
Statistics:
	Time per iteration: 3863 [mu s]
	Time per residual norm calculation: 185.000000 [mu s]
	Time per iteration and DOF: 0.060359 [ns]
	Retrieve results bandwith 1.183000 [GByte/s]
nonecudaGKOCG:  Solving for p, Initial residual = 0.0106661, Final residual = 9.70291e-05, No Iterations 1281
linear solve p 5903601
time step continuity errors : sum local = 1.75132e-10, global = 4.41566e-23, cumulative = -2.52264e-22
ExecutionTime = 926.87 s  ClockTime = 930 s

Time = 0.000425

Courant Number mean: 0.00485411 max: 0.0961179
DILUPBiCGStab:  Solving for Ux, Initial residual = 0.0093068, Final residual = 3.59471e-06, No Iterations 5
DILUPBiCGStab:  Solving for Uy, Initial residual = 0.0146087, Final residual = 1.65334e-06, No Iterations 5
DILUPBiCGStab:  Solving for Uz, Initial residual = 0.0287024, Final residual = 1.64249e-05, No Iterations 5
linear solve U 22461515
[OGL LOG][Proc: 0]global_index_init: 0.012 [ms]
[OGL LOG][Proc: 0]p_local_coeffs: call_update: 0 [ms]
[OGL LOG][Proc: 0]p_non_local_coeffs: call_update: 0 [ms]
[OGL LOG][Proc: 0]update_local_matrix_data: 565.963 [ms]
[OGL LOG][Proc: 0]update_non_local_matrix_data: 1.356 [ms]
[OGL LOG][Proc: 0]p_matrix: call_update: 128.375 [ms]
[OGL LOG][Proc: 0]p_rhs: call_update: 56.346 [ms]
[OGL LOG][Proc: 0]init_precond: 0.025 [ms]
[OGL LOG][StoppingCriterion.H:588] Creating stopping criterion with minIter 768 frequency 10
[OGL LOG][Proc: 0]generate_solver: 0.001 [ms]
[OGL LOG][Proc: 0]solve: 5212.1 [ms]
[OGL LOG][Proc: 0]copy_x_back: 108.391 [ms]
[OGL LOG][lduLduBase.H:303] 
Statistics:
	Time per iteration: 3857 [mu s]
	Time per residual norm calculation: 185.000000 [mu s]
	Time per iteration and DOF: 0.060266 [ns]
	Retrieve results bandwith 1.180000 [GByte/s]
nonecudaGKOCG:  Solving for p, Initial residual = 0.0103485, Final residual = 9.8461e-05, No Iterations 1351
linear solve p 6185187
time step continuity errors : sum local = 1.84714e-10, global = -1.38783e-22, cumulative = -3.91047e-22
[OGL LOG][Proc: 0]global_index_init: 0.012 [ms]
[OGL LOG][Proc: 0]p_local_coeffs: call_update: 0 [ms]
[OGL LOG][Proc: 0]p_non_local_coeffs: call_update: 0 [ms]
[OGL LOG][Proc: 0]update_local_matrix_data: 561.584 [ms]
[OGL LOG][Proc: 0]update_non_local_matrix_data: 2.171 [ms]
[OGL LOG][Proc: 0]p_matrix: call_update: 127.816 [ms]
[OGL LOG][Proc: 0]p_rhs: call_update: 56.505 [ms]
[OGL LOG][Proc: 0]init_precond: 0.027 [ms]
[OGL LOG][StoppingCriterion.H:588] Creating stopping criterion with minIter 810 frequency 10
[OGL LOG][Proc: 0]generate_solver: 0.001 [ms]
[OGL LOG][Proc: 0]solve: 4941.36 [ms]
[OGL LOG][Proc: 0]copy_x_back: 108.335 [ms]
[OGL LOG][lduLduBase.H:303] 
Statistics:
	Time per iteration: 3857 [mu s]
	Time per residual norm calculation: 179.000000 [mu s]
	Time per iteration and DOF: 0.060266 [ns]
	Retrieve results bandwith 1.181000 [GByte/s]
nonecudaGKOCG:  Solving for p, Initial residual = 0.00979497, Final residual = 9.71311e-05, No Iterations 1281
linear solve p 5894650
time step continuity errors : sum local = 1.71986e-10, global = -3.2102e-23, cumulative = -4.23149e-22
ExecutionTime = 977.19 s  ClockTime = 981 s

Time = 0.00045

Courant Number mean: 0.00498313 max: 0.0962305
DILUPBiCGStab:  Solving for Ux, Initial residual = 0.00880081, Final residual = 3.16885e-06, No Iterations 5
DILUPBiCGStab:  Solving for Uy, Initial residual = 0.0137004, Final residual = 1.48756e-06, No Iterations 5
DILUPBiCGStab:  Solving for Uz, Initial residual = 0.027362, Final residual = 1.68378e-05, No Iterations 5
linear solve U 22520496
[OGL LOG][Proc: 0]global_index_init: 0.011 [ms]
[OGL LOG][Proc: 0]p_local_coeffs: call_update: 0 [ms]
[OGL LOG][Proc: 0]p_non_local_coeffs: call_update: 0 [ms]
[OGL LOG][Proc: 0]update_local_matrix_data: 567.086 [ms]
[OGL LOG][Proc: 0]update_non_local_matrix_data: 2.194 [ms]
[OGL LOG][Proc: 0]p_matrix: call_update: 128.264 [ms]
[OGL LOG][Proc: 0]p_rhs: call_update: 56.313 [ms]
[OGL LOG][Proc: 0]init_precond: 0.03 [ms]
[OGL LOG][StoppingCriterion.H:588] Creating stopping criterion with minIter 768 frequency 10
[OGL LOG][Proc: 0]generate_solver: 0.001 [ms]
[OGL LOG][Proc: 0]solve: 11190 [ms]
[OGL LOG][Proc: 0]copy_x_back: 108.271 [ms]
[OGL LOG][lduLduBase.H:303] 
Statistics:
	Time per iteration: 3857 [mu s]
	Time per residual norm calculation: 184.000000 [mu s]
	Time per iteration and DOF: 0.060266 [ns]
	Retrieve results bandwith 1.182000 [GByte/s]
nonecudaGKOCG:  Solving for p, Initial residual = 0.00958256, Final residual = 8.68578e-05, No Iterations 2901
linear solve p 12149212
time step continuity errors : sum local = 1.51577e-10, global = -6.06926e-23, cumulative = -4.83842e-22
[OGL LOG][Proc: 0]global_index_init: 0.011 [ms]
[OGL LOG][Proc: 0]p_local_coeffs: call_update: 0 [ms]
[OGL LOG][Proc: 0]p_non_local_coeffs: call_update: 0 [ms]
[OGL LOG][Proc: 0]update_local_matrix_data: 558.739 [ms]
[OGL LOG][Proc: 0]update_non_local_matrix_data: 1.327 [ms]
[OGL LOG][Proc: 0]p_matrix: call_update: 128.043 [ms]
[OGL LOG][Proc: 0]p_rhs: call_update: 56.473 [ms]
[OGL LOG][Proc: 0]init_precond: 0.024 [ms]
[OGL LOG][StoppingCriterion.H:588] Creating stopping criterion with minIter 1740 frequency 10
[OGL LOG][Proc: 0]generate_solver: 0.001 [ms]
[OGL LOG][Proc: 0]solve: 11140.8 [ms]
[OGL LOG][Proc: 0]copy_x_back: 108.396 [ms]
[OGL LOG][lduLduBase.H:303] 
Statistics:
	Time per iteration: 3853 [mu s]
	Time per residual norm calculation: 180.000000 [mu s]
	Time per iteration and DOF: 0.060203 [ns]
	Retrieve results bandwith 1.180000 [GByte/s]
nonecudaGKOCG:  Solving for p, Initial residual = 0.00908813, Final residual = 9.2368e-05, No Iterations 2891
linear solve p 12106722
time step continuity errors : sum local = 1.61248e-10, global = 1.16231e-23, cumulative = -4.72218e-22
ExecutionTime = 1039.71 s  ClockTime = 1043 s

Time = 0.000475

Courant Number mean: 0.00510714 max: 0.0963332
DILUPBiCGStab:  Solving for Ux, Initial residual = 0.00833766, Final residual = 2.81226e-06, No Iterations 5
DILUPBiCGStab:  Solving for Uy, Initial residual = 0.0129142, Final residual = 1.36495e-06, No Iterations 5
DILUPBiCGStab:  Solving for Uz, Initial residual = 0.0246981, Final residual = 1.01774e-05, No Iterations 5
linear solve U 22395539
[OGL LOG][Proc: 0]global_index_init: 0.011 [ms]
[OGL LOG][Proc: 0]p_local_coeffs: call_update: 0 [ms]
[OGL LOG][Proc: 0]p_non_local_coeffs: call_update: 0 [ms]
[OGL LOG][Proc: 0]update_local_matrix_data: 565.767 [ms]
[OGL LOG][Proc: 0]update_non_local_matrix_data: 2.168 [ms]
[OGL LOG][Proc: 0]p_matrix: call_update: 128.206 [ms]
[OGL LOG][Proc: 0]p_rhs: call_update: 56.125 [ms]
[OGL LOG][Proc: 0]init_precond: 0.027 [ms]
[OGL LOG][StoppingCriterion.H:588] Creating stopping criterion with minIter 1734 frequency 10
[OGL LOG][Proc: 0]generate_solver: 0.001 [ms]
[OGL LOG][Proc: 0]solve: 11026.1 [ms]
[OGL LOG][Proc: 0]copy_x_back: 108.085 [ms]
[OGL LOG][lduLduBase.H:303] 
Statistics:
	Time per iteration: 3853 [mu s]
	Time per residual norm calculation: 189.000000 [mu s]
	Time per iteration and DOF: 0.060203 [ns]
	Retrieve results bandwith 1.184000 [GByte/s]
nonecudaGKOCG:  Solving for p, Initial residual = 0.00889402, Final residual = 8.07336e-05, No Iterations 2861
linear solve p 11998478
time step continuity errors : sum local = 1.40933e-10, global = -1.16866e-22, cumulative = -5.89085e-22
[OGL LOG][Proc: 0]global_index_init: 0.012 [ms]
[OGL LOG][Proc: 0]p_local_coeffs: call_update: 0 [ms]
[OGL LOG][Proc: 0]p_non_local_coeffs: call_update: 0 [ms]
[OGL LOG][Proc: 0]update_local_matrix_data: 557.572 [ms]
[OGL LOG][Proc: 0]update_non_local_matrix_data: 1.321 [ms]
[OGL LOG][Proc: 0]p_matrix: call_update: 128.435 [ms]
[OGL LOG][Proc: 0]p_rhs: call_update: 56.611 [ms]
[OGL LOG][Proc: 0]init_precond: 0.027 [ms]
[OGL LOG][StoppingCriterion.H:588] Creating stopping criterion with minIter 1716 frequency 10
[OGL LOG][Proc: 0]generate_solver: 0.001 [ms]
[OGL LOG][Proc: 0]solve: 10980.9 [ms]
[OGL LOG][Proc: 0]copy_x_back: 108.819 [ms]
[OGL LOG][lduLduBase.H:303] 
Statistics:
	Time per iteration: 3851 [mu s]
	Time per residual norm calculation: 183.000000 [mu s]
	Time per iteration and DOF: 0.060172 [ns]
	Retrieve results bandwith 1.176000 [GByte/s]
nonecudaGKOCG:  Solving for p, Initial residual = 0.00844706, Final residual = 8.97919e-05, No Iterations 2851
linear solve p 11947712
time step continuity errors : sum local = 1.56786e-10, global = 2.0826e-23, cumulative = -5.68259e-22
ExecutionTime = 1101.87 s  ClockTime = 1106 s

Time = 0.0005

Courant Number mean: 0.00522673 max: 0.0964273
DILUPBiCGStab:  Solving for Ux, Initial residual = 0.007924, Final residual = 2.51651e-06, No Iterations 5
DILUPBiCGStab:  Solving for Uy, Initial residual = 0.0122055, Final residual = 1.29548e-06, No Iterations 5
DILUPBiCGStab:  Solving for Uz, Initial residual = 0.0232728, Final residual = 5.19198e-06, No Iterations 5
linear solve U 22449812
[OGL LOG][Proc: 0]global_index_init: 0.011 [ms]
[OGL LOG][Proc: 0]p_local_coeffs: call_update: 0 [ms]
[OGL LOG][Proc: 0]p_non_local_coeffs: call_update: 0 [ms]
[OGL LOG][Proc: 0]update_local_matrix_data: 566.178 [ms]
[OGL LOG][Proc: 0]update_non_local_matrix_data: 2.191 [ms]
[OGL LOG][Proc: 0]p_matrix: call_update: 127.81 [ms]
[OGL LOG][Proc: 0]p_rhs: call_update: 56.581 [ms]
[OGL LOG][Proc: 0]init_precond: 0.028 [ms]
[OGL LOG][StoppingCriterion.H:588] Creating stopping criterion with minIter 1710 frequency 10
[OGL LOG][Proc: 0]generate_solver: 0.001 [ms]
[OGL LOG][Proc: 0]solve: 6583.13 [ms]
[OGL LOG][Proc: 0]copy_x_back: 108.062 [ms]
[OGL LOG][lduLduBase.H:303] 
Statistics:
	Time per iteration: 3847 [mu s]
	Time per residual norm calculation: 275.000000 [mu s]
	Time per iteration and DOF: 0.060109 [ns]
	Retrieve results bandwith 1.184000 [GByte/s]
nonecudaGKOCG:  Solving for p, Initial residual = 0.00818896, Final residual = 5.06212e-05, No Iterations 1711
linear solve p 7556606
time step continuity errors : sum local = 9.09255e-11, global = -1.49258e-23, cumulative = -5.83185e-22
[OGL LOG][Proc: 0]global_index_init: 0.011 [ms]
[OGL LOG][Proc: 0]p_local_coeffs: call_update: 0 [ms]
[OGL LOG][Proc: 0]p_non_local_coeffs: call_update: 0 [ms]
[OGL LOG][Proc: 0]update_local_matrix_data: 559.928 [ms]
[OGL LOG][Proc: 0]update_non_local_matrix_data: 2.205 [ms]
[OGL LOG][Proc: 0]p_matrix: call_update: 128.067 [ms]
[OGL LOG][Proc: 0]p_rhs: call_update: 56.278 [ms]
[OGL LOG][Proc: 0]init_precond: 0.027 [ms]
[OGL LOG][StoppingCriterion.H:588] Creating stopping criterion with minIter 1026 frequency 10
[OGL LOG][Proc: 0]generate_solver: 0.001 [ms]
[OGL LOG][Proc: 0]solve: 4435.6 [ms]
[OGL LOG][Proc: 0]copy_x_back: 108.653 [ms]
[OGL LOG][lduLduBase.H:303] 
Statistics:
	Time per iteration: 3853 [mu s]
	Time per residual norm calculation: 181.000000 [mu s]
	Time per iteration and DOF: 0.060203 [ns]
	Retrieve results bandwith 1.178000 [GByte/s]
nonecudaGKOCG:  Solving for p, Initial residual = 0.00778857, Final residual = 8.70351e-05, No Iterations 1151
linear solve p 5388473
time step continuity errors : sum local = 1.52932e-10, global = -2.35086e-23, cumulative = -6.06693e-22
ExecutionTime = 1153.02 s  ClockTime = 1157 s

End

Finalising parallel run
================================================================================
hash: 5e342516478c592cea8b5b0ca1799be1
/*---------------------------------------------------------------------------*\
| =========                 |                                                 |
| \\      /  F ield         | OpenFOAM: The Open Source CFD Toolbox           |
|  \\    /   O peration     | Version:  2112                                  |
|   \\  /    A nd           | Website:  www.openfoam.com                      |
|    \\/     M anipulation  |                                                 |
\*---------------------------------------------------------------------------*/
Build  : d44c8318f0-20220111 OPENFOAM=2112 version=v2112
Arch   : "LSB;label=32;scalar=64"
Exec   : icoFoam -parallel
Date   : Oct 08 2022
Time   : 11:53:58
Host   : hkn0718.localdomain
PID    : 1329766
I/O    : uncollated
Case   : /hkfs/work/workspace/scratch/eq4036-lidDrivenCavity/repartition/mesh/400/matrix_solver/CG_NoPrecond_Ginkgo_CUDA/mpiRank_gko/40/base
nProcs : 40
Hosts  :
(
    (hkn0718.localdomain 4)
    (hkn0719.localdomain 4)
    (hkn0720.localdomain 4)
    (hkn0721.localdomain 4)
    (hkn0722.localdomain 4)
    (hkn0723.localdomain 4)
    (hkn0724.localdomain 4)
    (hkn0725.localdomain 4)
    (hkn0726.localdomain 4)
    (hkn0727.localdomain 4)
)
Pstream initialized with:
    floatTransfer      : 0
    nProcsSimpleSum    : 0
    commsType          : nonBlocking
    polling iterations : 0
trapFpe: Floating point exception trapping enabled (FOAM_SIGFPE).
fileModificationChecking : Monitoring run-time modified files using timeStampMaster (fileModificationSkew 5, maxFileModificationPolls 20)
allowSystemOperations : Allowing user-supplied system call operations

// * * * * * * * * * * * * * * * * * * * * * * * * * * * * * * * * * * * * * //
Create time

Create mesh for time = 0


PISO: Operating solver in PISO mode

Reading transportProperties

Reading field p

Reading field U

Reading/calculating face flux field phi


Starting time loop

Time = 2.5e-05

Courant Number mean: 0 max: 0
DILUPBiCGStab:  Solving for Ux, Initial residual = 1, Final residual = 0.00140429, No Iterations 5
DILUPBiCGStab:  Solving for Uy:  solution singularity
DILUPBiCGStab:  Solving for Uz:  solution singularity
linear solve U 1072011
[OGL LOG][lduLduBase.H:113] Initialising OGL
	OGL commit:  655b9fe+
	Branch: distributed-update 
	Ginkgo version: 1.5.0 ( develop)
	Ginkgo commit: 33f63e9
	MPI is GPU aware: 1
	Forces host buffer based communication: 0
	CPU ranks per GPU: 1
	Matrix format: Coo
	End OGL_INFO
[OGL LOG][Proc: 0]global_index_init: 57.7 [ms]
[OGL LOG][Proc: 0]p_local_cols: call_init: 0.001 [ms]
[OGL LOG][Proc: 0]p_local_rows: call_init: 0 [ms]
[OGL LOG][Proc: 0]p_local_ldu_map: call_init: 0 [ms]
[OGL LOG][Proc: 0]p_local_coeffs: call_init: 0 [ms]
[OGL LOG][Proc: 0]p_non_local_cols: call_init: 0 [ms]
[OGL LOG][Proc: 0]p_non_local_rows: call_init: 0 [ms]
[OGL LOG][Proc: 0]p_non_local_ldu_map: call_init: 0 [ms]
[OGL LOG][Proc: 0]p_non_local_coeffs: call_init: 0 [ms]
[OGL LOG][Proc: 0]init_local_sparsity_pattern: 271.331 [ms]
[OGL LOG][Proc: 0]init_non_local_sparsity_pattern: 23.693 [ms]
[OGL LOG][Proc: 0]update_local_matrix_data: 64.394 [ms]
[OGL LOG][Proc: 0]update_non_local_matrix_data: 0.551 [ms]
[OGL LOG][Proc: 0]device_partition: call_init: 0 [ms]
[OGL LOG][Proc: 0]p_matrix: call_init: 0 [ms]
[OGL LOG][Proc: 0]p_rhs: call_init: 0 [ms]
[OGL LOG][Proc: 0]p_solution: call_init: 0 [ms]
[OGL LOG][Proc: 0]init_precond: 0.055 [ms]
[OGL LOG][StoppingCriterion.H:588] Creating stopping criterion with minIter 0 frequency 10
[OGL LOG][Proc: 0]generate_solver: 0.016 [ms]
[OGL LOG][Proc: 0]solve: 9790.52 [ms]
[OGL LOG][Proc: 0]copy_x_back: 5.11 [ms]
[OGL LOG][lduLduBase.H:303] 
Statistics:
	Time per iteration: 3002 [mu s]
	Time per residual norm calculation: 215.000000 [mu s]
	Time per iteration and DOF: 0.046906 [ns]
	Retrieve results bandwith 2.504000 [GByte/s]
nonecudaGKOCG:  Solving for p, Initial residual = 1, Final residual = 9.18818e-05, No Iterations 3261
linear solve p 12448663
time step continuity errors : sum local = 2.25008e-10, global = -5.88619e-23, cumulative = -5.88619e-23
[OGL LOG][Proc: 0]global_index_init: 0.132 [ms]
[OGL LOG][Proc: 0]p_local_coeffs: call_update: 0.001 [ms]
[OGL LOG][Proc: 0]p_non_local_coeffs: call_update: 0 [ms]
[OGL LOG][Proc: 0]update_local_matrix_data: 53.335 [ms]
[OGL LOG][Proc: 0]update_non_local_matrix_data: 1.696 [ms]
[OGL LOG][Proc: 0]p_matrix: call_update: 13.026 [ms]
[OGL LOG][Proc: 0]p_rhs: call_update: 5.844 [ms]
[OGL LOG][Proc: 0]init_precond: 0.031 [ms]
[OGL LOG][StoppingCriterion.H:588] Creating stopping criterion with minIter 1956 frequency 10
[OGL LOG][Proc: 0]generate_solver: 0.001 [ms]
[OGL LOG][Proc: 0]solve: 9612.93 [ms]
[OGL LOG][Proc: 0]copy_x_back: 5.525 [ms]
[OGL LOG][lduLduBase.H:303] 
Statistics:
	Time per iteration: 2966 [mu s]
	Time per residual norm calculation: 133.000000 [mu s]
	Time per iteration and DOF: 0.046344 [ns]
	Retrieve results bandwith 2.316000 [GByte/s]
nonecudaGKOCG:  Solving for p, Initial residual = 0.718373, Final residual = 9.40822e-05, No Iterations 3241
linear solve p 9706146
time step continuity errors : sum local = 3.09833e-10, global = 1.12267e-24, cumulative = -5.77392e-23
ExecutionTime = 30.09 s  ClockTime = 31 s

Time = 5e-05

Courant Number mean: 0.00116722 max: 0.0751111
DILUPBiCGStab:  Solving for Ux, Initial residual = 0.159865, Final residual = 0.000909794, No Iterations 5
DILUPBiCGStab:  Solving for Uy, Initial residual = 0.348721, Final residual = 0.000996341, No Iterations 5
DILUPBiCGStab:  Solving for Uz, Initial residual = 0.994529, Final residual = 0.00377151, No Iterations 5
linear solve U 2111770
[OGL LOG][Proc: 0]global_index_init: 0.152 [ms]
[OGL LOG][Proc: 0]p_local_coeffs: call_update: 0 [ms]
[OGL LOG][Proc: 0]p_non_local_coeffs: call_update: 0 [ms]
[OGL LOG][Proc: 0]update_local_matrix_data: 56.209 [ms]
[OGL LOG][Proc: 0]update_non_local_matrix_data: 0.414 [ms]
[OGL LOG][Proc: 0]p_matrix: call_update: 13.181 [ms]
[OGL LOG][Proc: 0]p_rhs: call_update: 6.912 [ms]
[OGL LOG][Proc: 0]init_precond: 0.025 [ms]
[OGL LOG][StoppingCriterion.H:588] Creating stopping criterion with minIter 1944 frequency 10
[OGL LOG][Proc: 0]generate_solver: 0.001 [ms]
[OGL LOG][Proc: 0]solve: 9418.03 [ms]
[OGL LOG][Proc: 0]copy_x_back: 5.753 [ms]
[OGL LOG][lduLduBase.H:303] 
Statistics:
	Time per iteration: 2960 [mu s]
	Time per residual norm calculation: 122.000000 [mu s]
	Time per iteration and DOF: 0.046250 [ns]
	Retrieve results bandwith 2.224000 [GByte/s]
nonecudaGKOCG:  Solving for p, Initial residual = 0.66536, Final residual = 9.77212e-05, No Iterations 3181
linear solve p 9511811
time step continuity errors : sum local = 3.53932e-10, global = -5.93841e-23, cumulative = -1.17123e-22
[OGL LOG][Proc: 0]global_index_init: 0.127 [ms]
[OGL LOG][Proc: 0]p_local_coeffs: call_update: 0 [ms]
[OGL LOG][Proc: 0]p_non_local_coeffs: call_update: 0 [ms]
[OGL LOG][Proc: 0]update_local_matrix_data: 53.499 [ms]
[OGL LOG][Proc: 0]update_non_local_matrix_data: 1.852 [ms]
[OGL LOG][Proc: 0]p_matrix: call_update: 13.175 [ms]
[OGL LOG][Proc: 0]p_rhs: call_update: 5.361 [ms]
[OGL LOG][Proc: 0]init_precond: 0.026 [ms]
[OGL LOG][StoppingCriterion.H:588] Creating stopping criterion with minIter 1908 frequency 10
[OGL LOG][Proc: 0]generate_solver: 0.001 [ms]
[OGL LOG][Proc: 0]solve: 9421.95 [ms]
[OGL LOG][Proc: 0]copy_x_back: 5.435 [ms]
[OGL LOG][lduLduBase.H:303] 
Statistics:
	Time per iteration: 2961 [mu s]
	Time per residual norm calculation: 132.000000 [mu s]
	Time per iteration and DOF: 0.046266 [ns]
	Retrieve results bandwith 2.355000 [GByte/s]
nonecudaGKOCG:  Solving for p, Initial residual = 0.590889, Final residual = 8.60228e-05, No Iterations 3181
linear solve p 9512798
time step continuity errors : sum local = 3.17041e-10, global = 3.16752e-24, cumulative = -1.13956e-22
ExecutionTime = 52.76 s  ClockTime = 54 s

Time = 7.5e-05

Courant Number mean: 0.00178036 max: 0.0870157
DILUPBiCGStab:  Solving for Ux, Initial residual = 0.0661639, Final residual = 0.000272627, No Iterations 5
DILUPBiCGStab:  Solving for Uy, Initial residual = 0.138219, Final residual = 0.000287615, No Iterations 5
DILUPBiCGStab:  Solving for Uz, Initial residual = 0.437982, Final residual = 0.00198716, No Iterations 5
linear solve U 2110716
[OGL LOG][Proc: 0]global_index_init: 0.053 [ms]
[OGL LOG][Proc: 0]p_local_coeffs: call_update: 0 [ms]
[OGL LOG][Proc: 0]p_non_local_coeffs: call_update: 0 [ms]
[OGL LOG][Proc: 0]update_local_matrix_data: 55.666 [ms]
[OGL LOG][Proc: 0]update_non_local_matrix_data: 0.555 [ms]
[OGL LOG][Proc: 0]p_matrix: call_update: 13.161 [ms]
[OGL LOG][Proc: 0]p_rhs: call_update: 6.974 [ms]
[OGL LOG][Proc: 0]init_precond: 0.024 [ms]
[OGL LOG][StoppingCriterion.H:588] Creating stopping criterion with minIter 1908 frequency 10
[OGL LOG][Proc: 0]generate_solver: 0.001 [ms]
[OGL LOG][Proc: 0]solve: 9265.91 [ms]
[OGL LOG][Proc: 0]copy_x_back: 5.793 [ms]
[OGL LOG][lduLduBase.H:303] 
Statistics:
	Time per iteration: 2959 [mu s]
	Time per residual norm calculation: 125.000000 [mu s]
	Time per iteration and DOF: 0.046234 [ns]
	Retrieve results bandwith 2.209000 [GByte/s]
nonecudaGKOCG:  Solving for p, Initial residual = 0.563526, Final residual = 9.88418e-05, No Iterations 3131
linear solve p 9360930
time step continuity errors : sum local = 2.54022e-10, global = -8.28435e-23, cumulative = -1.96799e-22
[OGL LOG][Proc: 0]global_index_init: 0.224 [ms]
[OGL LOG][Proc: 0]p_local_coeffs: call_update: 0 [ms]
[OGL LOG][Proc: 0]p_non_local_coeffs: call_update: 0 [ms]
[OGL LOG][Proc: 0]update_local_matrix_data: 53.33 [ms]
[OGL LOG][Proc: 0]update_non_local_matrix_data: 1.453 [ms]
[OGL LOG][Proc: 0]p_matrix: call_update: 13.003 [ms]
[OGL LOG][Proc: 0]p_rhs: call_update: 5.888 [ms]
[OGL LOG][Proc: 0]init_precond: 0.027 [ms]
[OGL LOG][StoppingCriterion.H:588] Creating stopping criterion with minIter 1878 frequency 10
[OGL LOG][Proc: 0]generate_solver: 0.001 [ms]
[OGL LOG][Proc: 0]solve: 9272.66 [ms]
[OGL LOG][Proc: 0]copy_x_back: 5.079 [ms]
[OGL LOG][lduLduBase.H:303] 
Statistics:
	Time per iteration: 2961 [mu s]
	Time per residual norm calculation: 137.000000 [mu s]
	Time per iteration and DOF: 0.046266 [ns]
	Retrieve results bandwith 2.520000 [GByte/s]
nonecudaGKOCG:  Solving for p, Initial residual = 0.505719, Final residual = 9.3845e-05, No Iterations 3131
linear solve p 9365018
time step continuity errors : sum local = 2.35984e-10, global = -2.2335e-23, cumulative = -2.19134e-22
ExecutionTime = 75.11 s  ClockTime = 76 s

Time = 0.0001

Courant Number mean: 0.00220756 max: 0.0903125
DILUPBiCGStab:  Solving for Ux, Initial residual = 0.0437051, Final residual = 0.000122161, No Iterations 5
DILUPBiCGStab:  Solving for Uy, Initial residual = 0.0872262, Final residual = 0.00011581, No Iterations 5
DILUPBiCGStab:  Solving for Uz, Initial residual = 0.134075, Final residual = 0.000406209, No Iterations 5
linear solve U 2096107
[OGL LOG][Proc: 0]global_index_init: 0.192 [ms]
[OGL LOG][Proc: 0]p_local_coeffs: call_update: 0 [ms]
[OGL LOG][Proc: 0]p_non_local_coeffs: call_update: 0 [ms]
[OGL LOG][Proc: 0]update_local_matrix_data: 56.186 [ms]
[OGL LOG][Proc: 0]update_non_local_matrix_data: 0.429 [ms]
[OGL LOG][Proc: 0]p_matrix: call_update: 13.674 [ms]
[OGL LOG][Proc: 0]p_rhs: call_update: 5.35 [ms]
[OGL LOG][Proc: 0]init_precond: 0.023 [ms]
[OGL LOG][StoppingCriterion.H:588] Creating stopping criterion with minIter 1878 frequency 10
[OGL LOG][Proc: 0]generate_solver: 0.001 [ms]
[OGL LOG][Proc: 0]solve: 9177.22 [ms]
[OGL LOG][Proc: 0]copy_x_back: 6.099 [ms]
[OGL LOG][lduLduBase.H:303] 
Statistics:
	Time per iteration: 2959 [mu s]
	Time per residual norm calculation: 136.000000 [mu s]
	Time per iteration and DOF: 0.046234 [ns]
	Retrieve results bandwith 2.098000 [GByte/s]
nonecudaGKOCG:  Solving for p, Initial residual = 0.328315, Final residual = 8.99551e-05, No Iterations 3101
linear solve p 9269426
time step continuity errors : sum local = 1.96115e-10, global = -8.30636e-23, cumulative = -3.02198e-22
[OGL LOG][Proc: 0]global_index_init: 0.119 [ms]
[OGL LOG][Proc: 0]p_local_coeffs: call_update: 0 [ms]
[OGL LOG][Proc: 0]p_non_local_coeffs: call_update: 0 [ms]
[OGL LOG][Proc: 0]update_local_matrix_data: 53.706 [ms]
[OGL LOG][Proc: 0]update_non_local_matrix_data: 1.622 [ms]
[OGL LOG][Proc: 0]p_matrix: call_update: 13.217 [ms]
[OGL LOG][Proc: 0]p_rhs: call_update: 7.549 [ms]
[OGL LOG][Proc: 0]init_precond: 0.025 [ms]
[OGL LOG][StoppingCriterion.H:588] Creating stopping criterion with minIter 1860 frequency 10
[OGL LOG][Proc: 0]generate_solver: 0.001 [ms]
[OGL LOG][Proc: 0]solve: 9181.84 [ms]
[OGL LOG][Proc: 0]copy_x_back: 5.589 [ms]
[OGL LOG][lduLduBase.H:303] 
Statistics:
	Time per iteration: 2960 [mu s]
	Time per residual norm calculation: 127.000000 [mu s]
	Time per iteration and DOF: 0.046250 [ns]
	Retrieve results bandwith 2.290000 [GByte/s]
nonecudaGKOCG:  Solving for p, Initial residual = 0.273584, Final residual = 8.33975e-05, No Iterations 3101
linear solve p 9277639
time step continuity errors : sum local = 1.83144e-10, global = -4.03089e-24, cumulative = -3.06229e-22
ExecutionTime = 97.31 s  ClockTime = 99 s

Time = 0.000125

Courant Number mean: 0.00255331 max: 0.0919041
DILUPBiCGStab:  Solving for Ux, Initial residual = 0.0332711, Final residual = 7.7024e-05, No Iterations 5
DILUPBiCGStab:  Solving for Uy, Initial residual = 0.0630105, Final residual = 7.07241e-05, No Iterations 5
DILUPBiCGStab:  Solving for Uz, Initial residual = 0.0890825, Final residual = 0.00026419, No Iterations 5
linear solve U 2107986
[OGL LOG][Proc: 0]global_index_init: 0.098 [ms]
[OGL LOG][Proc: 0]p_local_coeffs: call_update: 0 [ms]
[OGL LOG][Proc: 0]p_non_local_coeffs: call_update: 0 [ms]
[OGL LOG][Proc: 0]update_local_matrix_data: 54.631 [ms]
[OGL LOG][Proc: 0]update_non_local_matrix_data: 1.266 [ms]
[OGL LOG][Proc: 0]p_matrix: call_update: 13.298 [ms]
[OGL LOG][Proc: 0]p_rhs: call_update: 6.182 [ms]
[OGL LOG][Proc: 0]init_precond: 0.025 [ms]
[OGL LOG][StoppingCriterion.H:588] Creating stopping criterion with minIter 1860 frequency 10
[OGL LOG][Proc: 0]generate_solver: 0.001 [ms]
[OGL LOG][Proc: 0]solve: 8884.99 [ms]
[OGL LOG][Proc: 0]copy_x_back: 5.692 [ms]
[OGL LOG][lduLduBase.H:303] 
Statistics:
	Time per iteration: 2960 [mu s]
	Time per residual norm calculation: 130.000000 [mu s]
	Time per iteration and DOF: 0.046250 [ns]
	Retrieve results bandwith 2.248000 [GByte/s]
nonecudaGKOCG:  Solving for p, Initial residual = 0.220806, Final residual = 8.88854e-05, No Iterations 3001
linear solve p 8978688
time step continuity errors : sum local = 1.71112e-10, global = -3.17014e-23, cumulative = -3.3793e-22
[OGL LOG][Proc: 0]global_index_init: 0.128 [ms]
[OGL LOG][Proc: 0]p_local_coeffs: call_update: 0 [ms]
[OGL LOG][Proc: 0]p_non_local_coeffs: call_update: 0 [ms]
[OGL LOG][Proc: 0]update_local_matrix_data: 53.493 [ms]
[OGL LOG][Proc: 0]update_non_local_matrix_data: 1.026 [ms]
[OGL LOG][Proc: 0]p_matrix: call_update: 13.113 [ms]
[OGL LOG][Proc: 0]p_rhs: call_update: 8.027 [ms]
[OGL LOG][Proc: 0]init_precond: 0.028 [ms]
[OGL LOG][StoppingCriterion.H:588] Creating stopping criterion with minIter 1800 frequency 10
[OGL LOG][Proc: 0]generate_solver: 0.001 [ms]
[OGL LOG][Proc: 0]solve: 8881.39 [ms]
[OGL LOG][Proc: 0]copy_x_back: 5.043 [ms]
[OGL LOG][lduLduBase.H:303] 
Statistics:
	Time per iteration: 2959 [mu s]
	Time per residual norm calculation: 129.000000 [mu s]
	Time per iteration and DOF: 0.046234 [ns]
	Retrieve results bandwith 2.538000 [GByte/s]
nonecudaGKOCG:  Solving for p, Initial residual = 0.18646, Final residual = 8.07403e-05, No Iterations 3001
linear solve p 8973247
time step continuity errors : sum local = 1.54744e-10, global = -6.45611e-23, cumulative = -4.02491e-22
ExecutionTime = 118.9 s  ClockTime = 120 s

Time = 0.00015

Courant Number mean: 0.00284851 max: 0.0928883
DILUPBiCGStab:  Solving for Ux, Initial residual = 0.0270566, Final residual = 5.33036e-05, No Iterations 5
DILUPBiCGStab:  Solving for Uy, Initial residual = 0.0495067, Final residual = 3.66328e-05, No Iterations 5
DILUPBiCGStab:  Solving for Uz, Initial residual = 0.0776232, Final residual = 0.000163535, No Iterations 5
linear solve U 2099349
[OGL LOG][Proc: 0]global_index_init: 0.186 [ms]
[OGL LOG][Proc: 0]p_local_coeffs: call_update: 0 [ms]
[OGL LOG][Proc: 0]p_non_local_coeffs: call_update: 0 [ms]
[OGL LOG][Proc: 0]update_local_matrix_data: 55.704 [ms]
[OGL LOG][Proc: 0]update_non_local_matrix_data: 0.769 [ms]
[OGL LOG][Proc: 0]p_matrix: call_update: 13.231 [ms]
[OGL LOG][Proc: 0]p_rhs: call_update: 5.123 [ms]
[OGL LOG][Proc: 0]init_precond: 0.025 [ms]
[OGL LOG][StoppingCriterion.H:588] Creating stopping criterion with minIter 1800 frequency 10
[OGL LOG][Proc: 0]generate_solver: 0.001 [ms]
[OGL LOG][Proc: 0]solve: 5321.24 [ms]
[OGL LOG][Proc: 0]copy_x_back: 5.999 [ms]
[OGL LOG][lduLduBase.H:303] 
Statistics:
	Time per iteration: 2954 [mu s]
	Time per residual norm calculation: 235.000000 [mu s]
	Time per iteration and DOF: 0.046156 [ns]
	Retrieve results bandwith 2.133000 [GByte/s]
nonecudaGKOCG:  Solving for p, Initial residual = 0.133551, Final residual = 9.74151e-05, No Iterations 1801
linear solve p 5412448
time step continuity errors : sum local = 1.87788e-10, global = -1.77456e-23, cumulative = -4.20237e-22
[OGL LOG][Proc: 0]global_index_init: 0.163 [ms]
[OGL LOG][Proc: 0]p_local_coeffs: call_update: 0 [ms]
[OGL LOG][Proc: 0]p_non_local_coeffs: call_update: 0 [ms]
[OGL LOG][Proc: 0]update_local_matrix_data: 53.862 [ms]
[OGL LOG][Proc: 0]update_non_local_matrix_data: 0.482 [ms]
[OGL LOG][Proc: 0]p_matrix: call_update: 13.275 [ms]
[OGL LOG][Proc: 0]p_rhs: call_update: 8.286 [ms]
[OGL LOG][Proc: 0]init_precond: 0.029 [ms]
[OGL LOG][StoppingCriterion.H:588] Creating stopping criterion with minIter 1080 frequency 10
[OGL LOG][Proc: 0]generate_solver: 0.001 [ms]
[OGL LOG][Proc: 0]solve: 4057.38 [ms]
[OGL LOG][Proc: 0]copy_x_back: 5.309 [ms]
[OGL LOG][lduLduBase.H:303] 
Statistics:
	Time per iteration: 2959 [mu s]
	Time per residual norm calculation: 122.000000 [mu s]
	Time per iteration and DOF: 0.046234 [ns]
	Retrieve results bandwith 2.411000 [GByte/s]
nonecudaGKOCG:  Solving for p, Initial residual = 0.110973, Final residual = 9.87898e-05, No Iterations 1371
linear solve p 4150844
time step continuity errors : sum local = 1.86151e-10, global = 3.59504e-23, cumulative = -3.84287e-22
ExecutionTime = 132.12 s  ClockTime = 134 s

Time = 0.000175

Courant Number mean: 0.00310896 max: 0.0935749
DILUPBiCGStab:  Solving for Ux, Initial residual = 0.0228943, Final residual = 3.93039e-05, No Iterations 5
DILUPBiCGStab:  Solving for Uy, Initial residual = 0.0407664, Final residual = 3.30333e-05, No Iterations 5
DILUPBiCGStab:  Solving for Uz, Initial residual = 0.0671963, Final residual = 0.000110622, No Iterations 5
linear solve U 2105426
[OGL LOG][Proc: 0]global_index_init: 0.116 [ms]
[OGL LOG][Proc: 0]p_local_coeffs: call_update: 0 [ms]
[OGL LOG][Proc: 0]p_non_local_coeffs: call_update: 0 [ms]
[OGL LOG][Proc: 0]update_local_matrix_data: 54.407 [ms]
[OGL LOG][Proc: 0]update_non_local_matrix_data: 1.143 [ms]
[OGL LOG][Proc: 0]p_matrix: call_update: 16.25 [ms]
[OGL LOG][Proc: 0]p_rhs: call_update: 5.458 [ms]
[OGL LOG][Proc: 0]init_precond: 0.029 [ms]
[OGL LOG][StoppingCriterion.H:588] Creating stopping criterion with minIter 822 frequency 10
[OGL LOG][Proc: 0]generate_solver: 0.001 [ms]
[OGL LOG][Proc: 0]solve: 3988.94 [ms]
[OGL LOG][Proc: 0]copy_x_back: 5.616 [ms]
[OGL LOG][lduLduBase.H:303] 
Statistics:
	Time per iteration: 2974 [mu s]
	Time per residual norm calculation: 123.000000 [mu s]
	Time per iteration and DOF: 0.046469 [ns]
	Retrieve results bandwith 2.279000 [GByte/s]
nonecudaGKOCG:  Solving for p, Initial residual = 0.092049, Final residual = 9.95781e-05, No Iterations 1341
linear solve p 4083616
time step continuity errors : sum local = 1.79724e-10, global = -4.11425e-24, cumulative = -3.88401e-22
[OGL LOG][Proc: 0]global_index_init: 0.084 [ms]
[OGL LOG][Proc: 0]p_local_coeffs: call_update: 0 [ms]
[OGL LOG][Proc: 0]p_non_local_coeffs: call_update: 0 [ms]
[OGL LOG][Proc: 0]update_local_matrix_data: 53.252 [ms]
[OGL LOG][Proc: 0]update_non_local_matrix_data: 1.412 [ms]
[OGL LOG][Proc: 0]p_matrix: call_update: 13.109 [ms]
[OGL LOG][Proc: 0]p_rhs: call_update: 7.921 [ms]
[OGL LOG][Proc: 0]init_precond: 0.025 [ms]
[OGL LOG][StoppingCriterion.H:588] Creating stopping criterion with minIter 804 frequency 10
[OGL LOG][Proc: 0]generate_solver: 0.001 [ms]
[OGL LOG][Proc: 0]solve: 3913.39 [ms]
[OGL LOG][Proc: 0]copy_x_back: 5.037 [ms]
[OGL LOG][lduLduBase.H:303] 
Statistics:
	Time per iteration: 2962 [mu s]
	Time per residual norm calculation: 124.000000 [mu s]
	Time per iteration and DOF: 0.046281 [ns]
	Retrieve results bandwith 2.541000 [GByte/s]
nonecudaGKOCG:  Solving for p, Initial residual = 0.077281, Final residual = 9.96276e-05, No Iterations 1321
linear solve p 4005256
time step continuity errors : sum local = 1.79844e-10, global = 8.64581e-24, cumulative = -3.79755e-22
ExecutionTime = 143.85 s  ClockTime = 145 s

Time = 0.0002

Courant Number mean: 0.00334349 max: 0.094089
DILUPBiCGStab:  Solving for Ux, Initial residual = 0.0198986, Final residual = 3.0085e-05, No Iterations 5
DILUPBiCGStab:  Solving for Uy, Initial residual = 0.0346209, Final residual = 2.46884e-05, No Iterations 5
DILUPBiCGStab:  Solving for Uz, Initial residual = 0.0593943, Final residual = 7.80216e-05, No Iterations 5
linear solve U 2096928
[OGL LOG][Proc: 0]global_index_init: 0.218 [ms]
[OGL LOG][Proc: 0]p_local_coeffs: call_update: 0 [ms]
[OGL LOG][Proc: 0]p_non_local_coeffs: call_update: 0 [ms]
[OGL LOG][Proc: 0]update_local_matrix_data: 54.865 [ms]
[OGL LOG][Proc: 0]update_non_local_matrix_data: 0.837 [ms]
[OGL LOG][Proc: 0]p_matrix: call_update: 13.03 [ms]
[OGL LOG][Proc: 0]p_rhs: call_update: 5.927 [ms]
[OGL LOG][Proc: 0]init_precond: 0.025 [ms]
[OGL LOG][StoppingCriterion.H:588] Creating stopping criterion with minIter 792 frequency 10
[OGL LOG][Proc: 0]generate_solver: 0.001 [ms]
[OGL LOG][Proc: 0]solve: 3913.57 [ms]
[OGL LOG][Proc: 0]copy_x_back: 5.666 [ms]
[OGL LOG][lduLduBase.H:303] 
Statistics:
	Time per iteration: 2962 [mu s]
	Time per residual norm calculation: 158.000000 [mu s]
	Time per iteration and DOF: 0.046281 [ns]
	Retrieve results bandwith 2.259000 [GByte/s]
nonecudaGKOCG:  Solving for p, Initial residual = 0.0599911, Final residual = 9.69098e-05, No Iterations 1321
linear solve p 4005065
time step continuity errors : sum local = 1.79068e-10, global = 1.55009e-23, cumulative = -3.64254e-22
[OGL LOG][Proc: 0]global_index_init: 0.166 [ms]
[OGL LOG][Proc: 0]p_local_coeffs: call_update: 0 [ms]
[OGL LOG][Proc: 0]p_non_local_coeffs: call_update: 0 [ms]
[OGL LOG][Proc: 0]update_local_matrix_data: 53.945 [ms]
[OGL LOG][Proc: 0]update_non_local_matrix_data: 0.602 [ms]
[OGL LOG][Proc: 0]p_matrix: call_update: 13.297 [ms]
[OGL LOG][Proc: 0]p_rhs: call_update: 7.533 [ms]
[OGL LOG][Proc: 0]init_precond: 0.026 [ms]
[OGL LOG][StoppingCriterion.H:588] Creating stopping criterion with minIter 792 frequency 10
[OGL LOG][Proc: 0]generate_solver: 0.001 [ms]
[OGL LOG][Proc: 0]solve: 3856.56 [ms]
[OGL LOG][Proc: 0]copy_x_back: 5.05 [ms]
[OGL LOG][lduLduBase.H:303] 
Statistics:
	Time per iteration: 2964 [mu s]
	Time per residual norm calculation: 130.000000 [mu s]
	Time per iteration and DOF: 0.046312 [ns]
	Retrieve results bandwith 2.534000 [GByte/s]
nonecudaGKOCG:  Solving for p, Initial residual = 0.0517077, Final residual = 9.68329e-05, No Iterations 1301
linear solve p 3948550
time step continuity errors : sum local = 1.74774e-10, global = -2.69641e-23, cumulative = -3.91218e-22
ExecutionTime = 155.47 s  ClockTime = 157 s

Time = 0.000225

Courant Number mean: 0.00355782 max: 0.0944927
DILUPBiCGStab:  Solving for Ux, Initial residual = 0.0176161, Final residual = 2.35922e-05, No Iterations 5
DILUPBiCGStab:  Solving for Uy, Initial residual = 0.0300979, Final residual = 2.23897e-05, No Iterations 5
DILUPBiCGStab:  Solving for Uz, Initial residual = 0.0527891, Final residual = 5.95781e-05, No Iterations 5
linear solve U 2104909
[OGL LOG][Proc: 0]global_index_init: 0.095 [ms]
[OGL LOG][Proc: 0]p_local_coeffs: call_update: 0 [ms]
[OGL LOG][Proc: 0]p_non_local_coeffs: call_update: 0 [ms]
[OGL LOG][Proc: 0]update_local_matrix_data: 54.78 [ms]
[OGL LOG][Proc: 0]update_non_local_matrix_data: 1.491 [ms]
[OGL LOG][Proc: 0]p_matrix: call_update: 13.051 [ms]
[...]
/*---------------------------------------------------------------------------*\
| =========                 |                                                 |
| \\      /  F ield         | OpenFOAM: The Open Source CFD Toolbox           |
|  \\    /   O peration     | Version:  2112                                  |
|   \\  /    A nd           | Website:  www.openfoam.com                      |
|    \\/     M anipulation  |                                                 |
\*---------------------------------------------------------------------------*/
Build  : d44c8318f0-20220111 OPENFOAM=2112 version=v2112
Arch   : "LSB;label=32;scalar=64"
Exec   : icoFoam -parallel
Date   : Oct 06 2022
Time   : 14:03:31
Host   : hkn0845.localdomain
PID    : 1241964
I/O    : uncollated
Case   : /hkfs/work/workspace/scratch/eq4036-lidDrivenCavity/single_node/mesh/100/matrix_solver/CG_NoPrecond_OpenFOAM_Default/mpiRank_of/76/base
nProcs : 76
Hosts  :
(
    (hkn0845.localdomain 76)
)
Pstream initialized with:
    floatTransfer      : 0
    nProcsSimpleSum    : 0
    commsType          : nonBlocking
    polling iterations : 0
trapFpe: Floating point exception trapping enabled (FOAM_SIGFPE).
fileModificationChecking : Monitoring run-time modified files using timeStampMaster (fileModificationSkew 5, maxFileModificationPolls 20)
allowSystemOperations : Allowing user-supplied system call operations

// * * * * * * * * * * * * * * * * * * * * * * * * * * * * * * * * * * * * * //
Create time

--> FOAM Warning : 
    From void* Foam::dlLibraryTable::openLibrary(const Foam::fileName&, bool)
    in file db/dynamicLibrary/dlLibraryTable/dlLibraryTable.C at line 188
    Could not load "libpetscFoam.so"
libcuda.so.1: cannot open shared object file: No such file or directory
Create mesh for time = 0


PISO: Operating solver in PISO mode

Reading transportProperties

Reading field p

Reading field U

Reading/calculating face flux field phi


Starting time loop

Time = 0.0001

Courant Number mean: 0 max: 0
DILUPBiCGStab:  Solving for Ux, Initial residual = 1, Final residual = 4.24195e-05, No Iterations 5
DILUPBiCGStab:  Solving for Uy:  solution singularity
DILUPBiCGStab:  Solving for Uz:  solution singularity
linear solve U 13334
nonePCG:  Solving for p, Initial residual = 1, Final residual = 9.71466e-05, No Iterations 794
linear solve p 236399
time step continuity errors : sum local = 1.71636e-09, global = -3.44123e-22, cumulative = -3.44123e-22
nonePCG:  Solving for p, Initial residual = 0.559957, Final residual = 9.81636e-05, No Iterations 777
linear solve p 190202
time step continuity errors : sum local = 2.68518e-09, global = -2.25126e-22, cumulative = -5.69249e-22
ExecutionTime = 0.87 s  ClockTime = 2 s

Time = 0.0002

Courant Number mean: 0.00201328 max: 0.0540371
DILUPBiCGStab:  Solving for Ux, Initial residual = 0.216463, Final residual = 2.0656e-05, No Iterations 5
DILUPBiCGStab:  Solving for Uy, Initial residual = 0.309947, Final residual = 2.07625e-05, No Iterations 5
DILUPBiCGStab:  Solving for Uz, Initial residual = 0.981322, Final residual = 7.16958e-05, No Iterations 5
linear solve U 18853
nonePCG:  Solving for p, Initial residual = 0.381695, Final residual = 9.16596e-05, No Iterations 769
linear solve p 202437
time step continuity errors : sum local = 2.39727e-09, global = 5.80541e-22, cumulative = 1.12923e-23
nonePCG:  Solving for p, Initial residual = 0.284799, Final residual = 9.70455e-05, No Iterations 764
linear solve p 199882
time step continuity errors : sum local = 2.65935e-09, global = -4.11526e-22, cumulative = -4.00234e-22
ExecutionTime = 1.32 s  ClockTime = 2 s

Time = 0.0003

Courant Number mean: 0.00317975 max: 0.0721773
DILUPBiCGStab:  Solving for Ux, Initial residual = 0.0963259, Final residual = 8.5543e-06, No Iterations 5
DILUPBiCGStab:  Solving for Uy, Initial residual = 0.140695, Final residual = 7.16239e-06, No Iterations 5
DILUPBiCGStab:  Solving for Uz, Initial residual = 0.205729, Final residual = 1.73224e-05, No Iterations 5
linear solve U 18284
nonePCG:  Solving for p, Initial residual = 0.128568, Final residual = 9.73992e-05, No Iterations 743
linear solve p 200292
time step continuity errors : sum local = 2.29503e-09, global = -1.75125e-21, cumulative = -2.15149e-21
nonePCG:  Solving for p, Initial residual = 0.0996026, Final residual = 9.4776e-05, No Iterations 737
linear solve p 202171
time step continuity errors : sum local = 2.26223e-09, global = -8.1734e-22, cumulative = -2.96883e-21
ExecutionTime = 1.76 s  ClockTime = 3 s

Time = 0.0004

Courant Number mean: 0.00397979 max: 0.0793325
DILUPBiCGStab:  Solving for Ux, Initial residual = 0.0593654, Final residual = 4.07886e-06, No Iterations 5
DILUPBiCGStab:  Solving for Uy, Initial residual = 0.0868106, Final residual = 3.52007e-06, No Iterations 5
DILUPBiCGStab:  Solving for Uz, Initial residual = 0.127109, Final residual = 6.65525e-06, No Iterations 5
linear solve U 26715
nonePCG:  Solving for p, Initial residual = 0.0642989, Final residual = 9.70822e-05, No Iterations 729
linear solve p 186205
time step continuity errors : sum local = 2.25082e-09, global = -1.59122e-21, cumulative = -4.56004e-21
nonePCG:  Solving for p, Initial residual = 0.0497339, Final residual = 9.73541e-05, No Iterations 720
linear solve p 177236
time step continuity errors : sum local = 2.29218e-09, global = -1.63742e-22, cumulative = -4.72378e-21
ExecutionTime = 2.18 s  ClockTime = 3 s

Time = 0.0005

Courant Number mean: 0.00460123 max: 0.082885
DILUPBiCGStab:  Solving for Ux, Initial residual = 0.0428603, Final residual = 1.60649e-06, No Iterations 5
DILUPBiCGStab:  Solving for Uy, Initial residual = 0.0618663, Final residual = 2.05086e-06, No Iterations 5
DILUPBiCGStab:  Solving for Uz, Initial residual = 0.0971584, Final residual = 4.1949e-06, No Iterations 5
linear solve U 18108
nonePCG:  Solving for p, Initial residual = 0.0389457, Final residual = 9.89917e-05, No Iterations 402
linear solve p 107325
time step continuity errors : sum local = 2.66536e-09, global = -2.24884e-21, cumulative = -6.97262e-21
nonePCG:  Solving for p, Initial residual = 0.0305765, Final residual = 9.85587e-05, No Iterations 339
linear solve p 93683
time step continuity errors : sum local = 2.4638e-09, global = -3.19083e-21, cumulative = -1.01634e-20
ExecutionTime = 2.43 s  ClockTime = 4 s

Time = 0.0006

Courant Number mean: 0.00511858 max: 0.0850107
DILUPBiCGStab:  Solving for Ux, Initial residual = 0.0336705, Final residual = 7.89158e-07, No Iterations 5
DILUPBiCGStab:  Solving for Uy, Initial residual = 0.0480502, Final residual = 1.39741e-06, No Iterations 5
DILUPBiCGStab:  Solving for Uz, Initial residual = 0.0802629, Final residual = 2.98583e-06, No Iterations 5
linear solve U 21176
nonePCG:  Solving for p, Initial residual = 0.0269247, Final residual = 9.74871e-05, No Iterations 341
linear solve p 83201
time step continuity errors : sum local = 2.54664e-09, global = -6.42792e-22, cumulative = -1.08062e-20
nonePCG:  Solving for p, Initial residual = 0.0213648, Final residual = 9.98096e-05, No Iterations 311
linear solve p 82025
time step continuity errors : sum local = 2.52661e-09, global = -1.73114e-21, cumulative = -1.25374e-20
ExecutionTime = 2.64 s  ClockTime = 4 s

Time = 0.0007

Courant Number mean: 0.00556491 max: 0.0864549
DILUPBiCGStab:  Solving for Ux, Initial residual = 0.027767, Final residual = 5.42585e-07, No Iterations 5
DILUPBiCGStab:  Solving for Uy, Initial residual = 0.0392382, Final residual = 1.07543e-06, No Iterations 5
DILUPBiCGStab:  Solving for Uz, Initial residual = 0.0677447, Final residual = 2.29915e-06, No Iterations 5
linear solve U 17846
nonePCG:  Solving for p, Initial residual = 0.0207712, Final residual = 9.71831e-05, No Iterations 301
linear solve p 77840
time step continuity errors : sum local = 2.59552e-09, global = -8.36486e-22, cumulative = -1.33739e-20
nonePCG:  Solving for p, Initial residual = 0.0165057, Final residual = 9.73691e-05, No Iterations 293
linear solve p 76272
time step continuity errors : sum local = 2.51882e-09, global = -2.17389e-21, cumulative = -1.55478e-20
ExecutionTime = 2.83 s  ClockTime = 4 s

Time = 0.0008

Courant Number mean: 0.00596223 max: 0.0875192
DILUPBiCGStab:  Solving for Ux, Initial residual = 0.0236246, Final residual = 4.34729e-07, No Iterations 5
DILUPBiCGStab:  Solving for Uy, Initial residual = 0.0331362, Final residual = 8.79632e-07, No Iterations 5
DILUPBiCGStab:  Solving for Uz, Initial residual = 0.0588701, Final residual = 1.89222e-06, No Iterations 5
linear solve U 18131
nonePCG:  Solving for p, Initial residual = 0.0166935, Final residual = 9.7696e-05, No Iterations 294
linear solve p 72146
time step continuity errors : sum local = 2.61869e-09, global = -2.00713e-21, cumulative = -1.75549e-20
nonePCG:  Solving for p, Initial residual = 0.0133966, Final residual = 9.89459e-05, No Iterations 287
linear solve p 74936
time step continuity errors : sum local = 2.5909e-09, global = -4.20001e-23, cumulative = -1.75969e-20
ExecutionTime = 3.03 s  ClockTime = 4 s

Time = 0.0009

Courant Number mean: 0.0063184 max: 0.0883466
DILUPBiCGStab:  Solving for Ux, Initial residual = 0.0205609, Final residual = 3.72402e-07, No Iterations 5
DILUPBiCGStab:  Solving for Uy, Initial residual = 0.0286503, Final residual = 7.45525e-07, No Iterations 5
DILUPBiCGStab:  Solving for Uz, Initial residual = 0.0520044, Final residual = 1.60422e-06, No Iterations 5
linear solve U 17991
nonePCG:  Solving for p, Initial residual = 0.0138985, Final residual = 9.88841e-05, No Iterations 288
linear solve p 70006
time step continuity errors : sum local = 2.66913e-09, global = 1.33176e-23, cumulative = -1.75836e-20
nonePCG:  Solving for p, Initial residual = 0.0112113, Final residual = 9.78896e-05, No Iterations 283
linear solve p 69564
time step continuity errors : sum local = 2.59565e-09, global = 1.49099e-22, cumulative = -1.74345e-20
ExecutionTime = 3.21 s  ClockTime = 4 s

Time = 0.001

Courant Number mean: 0.00664431 max: 0.089014
DILUPBiCGStab:  Solving for Ux, Initial residual = 0.0181849, Final residual = 3.29074e-07, No Iterations 5
DILUPBiCGStab:  Solving for Uy, Initial residual = 0.0252128, Final residual = 6.4589e-07, No Iterations 5
DILUPBiCGStab:  Solving for Uz, Initial residual = 0.046517, Final residual = 1.39178e-06, No Iterations 5
linear solve U 18322
nonePCG:  Solving for p, Initial residual = 0.0118843, Final residual = 9.92271e-05, No Iterations 285
linear solve p 80384
time step continuity errors : sum local = 2.69354e-09, global = 5.16574e-22, cumulative = -1.69179e-20
nonePCG:  Solving for p, Initial residual = 0.0096253, Final residual = 9.96231e-05, No Iterations 280
linear solve p 80005
time step continuity errors : sum local = 2.66261e-09, global = 2.04566e-21, cumulative = -1.48722e-20
ExecutionTime = 3.41 s  ClockTime = 5 s

Time = 0.0011

Courant Number mean: 0.00694526 max: 0.0895672
DILUPBiCGStab:  Solving for Ux, Initial residual = 0.0162983, Final residual = 2.95241e-07, No Iterations 5
DILUPBiCGStab:  Solving for Uy, Initial residual = 0.0224937, Final residual = 5.67881e-07, No Iterations 5
DILUPBiCGStab:  Solving for Uz, Initial residual = 0.0420352, Final residual = 1.22691e-06, No Iterations 5
linear solve U 20119
nonePCG:  Solving for p, Initial residual = 0.0102956, Final residual = 9.87005e-05, No Iterations 283
linear solve p 78522
time step continuity errors : sum local = 2.6965e-09, global = -2.01725e-21, cumulative = -1.68895e-20
nonePCG:  Solving for p, Initial residual = 0.00836473, Final residual = 9.51823e-05, No Iterations 278
linear solve p 69859
time step continuity errors : sum local = 2.57569e-09, global = -2.1728e-21, cumulative = -1.90623e-20
ExecutionTime = 3.61 s  ClockTime = 5 s

Time = 0.0012

Courant Number mean: 0.00722373 max: 0.0900355
DILUPBiCGStab:  Solving for Ux, Initial residual = 0.0147482, Final residual = 2.67135e-07, No Iterations 5
DILUPBiCGStab:  Solving for Uy, Initial residual = 0.0202892, Final residual = 5.04771e-07, No Iterations 5
DILUPBiCGStab:  Solving for Uz, Initial residual = 0.0383092, Final residual = 1.09456e-06, No Iterations 5
linear solve U 18454
nonePCG:  Solving for p, Initial residual = 0.00904951, Final residual = 9.76217e-05, No Iterations 279
linear solve p 68835
time step continuity errors : sum local = 2.68351e-09, global = -2.4232e-21, cumulative = -2.14855e-20
nonePCG:  Solving for p, Initial residual = 0.00738923, Final residual = 9.8681e-05, No Iterations 275
linear solve p 66614
time step continuity errors : sum local = 2.67913e-09, global = -2.4858e-21, cumulative = -2.39713e-20
ExecutionTime = 3.79 s  ClockTime = 5 s

Time = 0.0013

Courant Number mean: 0.00748295 max: 0.0904386
DILUPBiCGStab:  Solving for Ux, Initial residual = 0.0134669, Final residual = 2.43139e-07, No Iterations 5
DILUPBiCGStab:  Solving for Uy, Initial residual = 0.018466, Final residual = 4.52529e-07, No Iterations 5
DILUPBiCGStab:  Solving for Uz, Initial residual = 0.0351674, Final residual = 9.8615e-07, No Iterations 5
linear solve U 18317
nonePCG:  Solving for p, Initial residual = 0.0080965, Final residual = 9.7452e-05, No Iterations 276
linear solve p 69143
time step continuity errors : sum local = 2.69183e-09, global = -2.19707e-21, cumulative = -2.61684e-20
nonePCG:  Solving for p, Initial residual = 0.00663111, Final residual = 9.944e-05, No Iterations 271
linear solve p 66322
time step continuity errors : sum local = 2.71384e-09, global = -2.53225e-21, cumulative = -2.87006e-20
ExecutionTime = 3.97 s  ClockTime = 5 s

Time = 0.0014

Courant Number mean: 0.00772776 max: 0.0907902
DILUPBiCGStab:  Solving for Ux, Initial residual = 0.0123794, Final residual = 2.22327e-07, No Iterations 5
DILUPBiCGStab:  Solving for Uy, Initial residual = 0.0169331, Final residual = 4.08627e-07, No Iterations 5
DILUPBiCGStab:  Solving for Uz, Initial residual = 0.0324814, Final residual = 8.95786e-07, No Iterations 5
linear solve U 18043
nonePCG:  Solving for p, Initial residual = 0.00728135, Final residual = 9.83153e-05, No Iterations 274
linear solve p 67587
time step continuity errors : sum local = 2.72422e-09, global = -2.72496e-21, cumulative = -3.14256e-20
nonePCG:  Solving for p, Initial residual = 0.00598057, Final residual = 9.73157e-05, No Iterations 270
linear solve p 66726
time step continuity errors : sum local = 2.67553e-09, global = -1.79963e-21, cumulative = -3.32252e-20
ExecutionTime = 4.15 s  ClockTime = 5 s

Time = 0.0015

Courant Number mean: 0.00795854 max: 0.0911005
DILUPBiCGStab:  Solving for Ux, Initial residual = 0.011447, Final residual = 2.04116e-07, No Iterations 5
DILUPBiCGStab:  Solving for Uy, Initial residual = 0.0156265, Final residual = 3.7129e-07, No Iterations 5
DILUPBiCGStab:  Solving for Uz, Initial residual = 0.0301599, Final residual = 8.19146e-07, No Iterations 5
linear solve U 17902
nonePCG:  Solving for p, Initial residual = 0.00658156, Final residual = 9.81285e-05, No Iterations 271
linear solve p 69000
time step continuity errors : sum local = 2.72909e-09, global = -3.09308e-21, cumulative = -3.63183e-20
nonePCG:  Solving for p, Initial residual = 0.00542741, Final residual = 9.87953e-05, No Iterations 266
linear solve p 71776
time step continuity errors : sum local = 2.72421e-09, global = -1.39781e-21, cumulative = -3.77161e-20
ExecutionTime = 4.34 s  ClockTime = 5 s

Time = 0.0016

Courant Number mean: 0.00817642 max: 0.0913769
DILUPBiCGStab:  Solving for Ux, Initial residual = 0.0106406, Final residual = 1.88147e-07, No Iterations 5
DILUPBiCGStab:  Solving for Uy, Initial residual = 0.0144996, Final residual = 3.39252e-07, No Iterations 5
DILUPBiCGStab:  Solving for Uz, Initial residual = 0.0281346, Final residual = 7.53864e-07, No Iterations 5
linear solve U 21914
nonePCG:  Solving for p, Initial residual = 0.00603353, Final residual = 9.82127e-05, No Iterations 271
linear solve p 73830
time step continuity errors : sum local = 2.74056e-09, global = -3.01067e-21, cumulative = -4.07268e-20
nonePCG:  Solving for p, Initial residual = 0.00496622, Final residual = 9.48179e-05, No Iterations 265
linear solve p 71431
time step continuity errors : sum local = 2.63713e-09, global = -2.01907e-21, cumulative = -4.27458e-20
ExecutionTime = 4.53 s  ClockTime = 6 s

Time = 0.0017

Courant Number mean: 0.00838242 max: 0.0916251
DILUPBiCGStab:  Solving for Ux, Initial residual = 0.00993254, Final residual = 1.74057e-07, No Iterations 5
DILUPBiCGStab:  Solving for Uy, Initial residual = 0.0135178, Final residual = 3.11546e-07, No Iterations 5
DILUPBiCGStab:  Solving for Uz, Initial residual = 0.0263519, Final residual = 6.96736e-07, No Iterations 5
linear solve U 18421
nonePCG:  Solving for p, Initial residual = 0.00548984, Final residual = 9.96958e-05, No Iterations 266
linear solve p 70923
time step continuity errors : sum local = 2.78462e-09, global = -2.8455e-21, cumulative = -4.55913e-20
nonePCG:  Solving for p, Initial residual = 0.00454923, Final residual = 9.63767e-05, No Iterations 263
linear solve p 70069
time step continuity errors : sum local = 2.68506e-09, global = -1.27086e-21, cumulative = -4.68622e-20
ExecutionTime = 4.72 s  ClockTime = 6 s

Time = 0.0018

Courant Number mean: 0.00857949 max: 0.0918496
DILUPBiCGStab:  Solving for Ux, Initial residual = 0.00931113, Final residual = 1.61588e-07, No Iterations 5
DILUPBiCGStab:  Solving for Uy, Initial residual = 0.012655, Final residual = 2.87399e-07, No Iterations 5
DILUPBiCGStab:  Solving for Uz, Initial residual = 0.0247717, Final residual = 6.47283e-07, No Iterations 5
linear solve U 18232
nonePCG:  Solving for p, Initial residual = 0.00513515, Final residual = 9.95751e-05, No Iterations 264
linear solve p 64589
time step continuity errors : sum local = 2.78955e-09, global = -4.07407e-22, cumulative = -4.72696e-20
nonePCG:  Solving for p, Initial residual = 0.00426368, Final residual = 9.03789e-05, No Iterations 262
linear solve p 70149
time step continuity errors : sum local = 2.54558e-09, global = -3.06388e-21, cumulative = -5.03335e-20
ExecutionTime = 4.89 s  ClockTime = 6 s

Time = 0.0019

Courant Number mean: 0.00876806 max: 0.0920539
DILUPBiCGStab:  Solving for Ux, Initial residual = 0.00875826, Final residual = 1.50485e-07, No Iterations 5
DILUPBiCGStab:  Solving for Uy, Initial residual = 0.0118907, Final residual = 2.66211e-07, No Iterations 5
DILUPBiCGStab:  Solving for Uz, Initial residual = 0.023361, Final residual = 6.03406e-07, No Iterations 5
linear solve U 18456
nonePCG:  Solving for p, Initial residual = 0.00475306, Final residual = 9.87393e-05, No Iterations 265
linear solve p 64668
time step continuity errors : sum local = 2.77547e-09, global = -3.21595e-21, cumulative = -5.35494e-20
nonePCG:  Solving for p, Initial residual = 0.00394539, Final residual = 9.69478e-05, No Iterations 259
linear solve p 65646
time step continuity errors : sum local = 2.71584e-09, global = -3.50412e-21, cumulative = -5.70536e-20
ExecutionTime = 5.07 s  ClockTime = 6 s

Time = 0.002

Courant Number mean: 0.00894842 max: 0.0922409
DILUPBiCGStab:  Solving for Ux, Initial residual = 0.00826112, Final residual = 1.40546e-07, No Iterations 5
DILUPBiCGStab:  Solving for Uy, Initial residual = 0.011209, Final residual = 2.47526e-07, No Iterations 5
DILUPBiCGStab:  Solving for Uz, Initial residual = 0.0220947, Final residual = 5.64409e-07, No Iterations 5
linear solve U 18272
nonePCG:  Solving for p, Initial residual = 0.0043962, Final residual = 9.91219e-05, No Iterations 263
linear solve p 65584
time step continuity errors : sum local = 2.79092e-09, global = -3.46192e-21, cumulative = -6.05155e-20
nonePCG:  Solving for p, Initial residual = 0.00365204, Final residual = 9.78697e-05, No Iterations 255
linear solve p 63542
time step continuity errors : sum local = 2.74573e-09, global = -5.14918e-21, cumulative = -6.56647e-20
ExecutionTime = 5.24 s  ClockTime = 6 s

End

Finalising parallel run
================================================================================
