hash: 415167f8018d1941e3f6dd108741b27b
/*---------------------------------------------------------------------------*\
| =========                 |                                                 |
| \\      /  F ield         | OpenFOAM: The Open Source CFD Toolbox           |
|  \\    /   O peration     | Version:  2112                                  |
|   \\  /    A nd           | Website:  www.openfoam.com                      |
|    \\/     M anipulation  |                                                 |
\*---------------------------------------------------------------------------*/
Build  : d44c8318f0-20220111 OPENFOAM=2112 version=v2112
Arch   : "LSB;label=32;scalar=64"
Exec   : icoFoam -parallel
Date   : Oct 09 2022
Time   : 15:35:21
Host   : hkn0817.localdomain
PID    : 1857800
I/O    : uncollated
================================================================================
hash: 70be8727603c544024648d4fa89449c7
/*---------------------------------------------------------------------------*\
| =========                 |                                                 |
| \\      /  F ield         | OpenFOAM: The Open Source CFD Toolbox           |
|  \\    /   O peration     | Version:  2112                                  |
|   \\  /    A nd           | Website:  www.openfoam.com                      |
|    \\/     M anipulation  |                                                 |
\*---------------------------------------------------------------------------*/
Build  : d44c8318f0-20220111 OPENFOAM=2112 version=v2112
Arch   : "LSB;label=32;scalar=64"
Exec   : icoFoam -parallel
Date   : Oct 09 2022
Time   : 15:35:22
Host   : hkn0819.localdomain
PID    : 2365325
I/O    : uncollated
Case   : /hkfs/work/workspace/scratch/eq4036-lidDrivenCavity/repartition/mesh/400/matrix_solver/CG_NoPrecond_Ginkgo_CUDA/mpiRank_gko/40/base
nProcs : 40
Hosts  :
(
    (hkn0819.localdomain 40)
)
Pstream initialized with:
    floatTransfer      : 0
    nProcsSimpleSum    : 0
    commsType          : nonBlocking
    polling iterations : 0
trapFpe: Floating point exception trapping enabled (FOAM_SIGFPE).
fileModificationChecking : Monitoring run-time modified files using timeStampMaster (fileModificationSkew 5, maxFileModificationPolls 20)
allowSystemOperations : Allowing user-supplied system call operations

// * * * * * * * * * * * * * * * * * * * * * * * * * * * * * * * * * * * * * //
Create time

Create mesh for time = 0


PISO: Operating solver in PISO mode

Reading transportProperties

Reading field p

Reading field U

Reading/calculating face flux field phi


Starting time loop

Time = 2.5e-05

Courant Number mean: 0 max: 0
DILUPBiCGStab:  Solving for Ux, Initial residual = 1, Final residual = 0.00140429, No Iterations 5
DILUPBiCGStab:  Solving for Uy:  solution singularity
DILUPBiCGStab:  Solving for Uz:  solution singularity
linear solve U 2728189
[OGL LOG][lduLduBase.H:113] Initialising OGL
	OGL commit:  655b9fe+
	Branch: distributed-update 
	Ginkgo version: 1.5.0 ( develop)
	Ginkgo commit: 33f63e9
	MPI is GPU aware: 1
	Forces host buffer based communication: 0
	CPU ranks per GPU: 10
	Matrix format: Coo
	End OGL_INFO
[OGL LOG][Proc: 0]global_index_init: 0.083 [ms]
[OGL LOG][Proc: 0]p_local_cols: call_init: 0.001 [ms]
[OGL LOG][Proc: 0]p_local_rows: call_init: 0 [ms]
[OGL LOG][Proc: 0]p_local_ldu_map: call_init: 0 [ms]
[OGL LOG][Proc: 0]p_local_coeffs: call_init: 0 [ms]
[OGL LOG][Proc: 0]p_non_local_cols: call_init: 0 [ms]
[OGL LOG][Proc: 0]p_non_local_rows: call_init: 0 [ms]
[OGL LOG][Proc: 0]p_non_local_ldu_map: call_init: 0 [ms]
[OGL LOG][Proc: 0]p_non_local_coeffs: call_init: 0 [ms]
[OGL LOG][Proc: 0]init_local_sparsity_pattern: 447.315 [ms]
[OGL LOG][Proc: 0]init_non_local_sparsity_pattern: 47.27 [ms]
[OGL LOG][Proc: 0]update_local_matrix_data: 172.709 [ms]
[OGL LOG][Proc: 0]update_non_local_matrix_data: 7.212 [ms]
[OGL LOG][Proc: 0]device_partition: call_init: 0 [ms]
 delta t build 47078 delta t repart 11904 delta t gather 9982677
 delta t build 47646 delta t repart 11758 delta t gather 9982785
 delta t build 158993 delta t repart 11790 delta t gather 9982950
 delta t build 157295 delta t repart 11916 delta t gather 9983082
 delta t build 129798 delta t repart 11919 delta t gather 9983027
 delta t build 159347 delta t repart 11864 delta t gather 9983028
 delta t build 158556 delta t repart 11930 delta t gather 9983055
 delta t build 161091 delta t repart 11772 delta t gather 9983100
 delta t build 157452 delta t repart 11907 delta t gather 9983115
 delta t build 159044 delta t repart 11742 delta t gather 9983073
 delta t build 159375 delta t repart 11819 delta t gather 9983119
 delta t build 156144 delta t repart 11773 delta t gather 9983049
 delta t build 156044 delta t repart 11750 delta t gather 9983132
 delta t build 156030 delta t repart 11834 delta t gather 9983130
 delta t build 158032 delta t repart 11783 delta t gather 9983146
 delta t build 156196 delta t repart 11835 delta t gather 9983165
 delta t build 157522 delta t repart 11832 delta t gather 9983168
 delta t build 158703 delta t repart 11953 delta t gather 9983101
 delta t build 158286 delta t repart 11737 delta t gather 9983096
 delta t build 154884 delta t repart 11697 delta t gather 9983110
 delta t build 157618 delta t repart 11713 delta t gather 9983122
 delta t build 158820 delta t repart 11871 delta t gather 9983153
 delta t build 159376 delta t repart 11809 delta t gather 9983200
 delta t build 156507 delta t repart 11806 delta t gather 9983201
 delta t build 156652 delta t repart 11756 delta t gather 9983177
 delta t build 157875 delta t repart 11924 delta t gather 9983138
 delta t build 158548 delta t repart 11871 delta t gather 9983189
 delta t build 159370 delta t repart 11880 delta t gather 9983195
 delta t build 155509 delta t repart 11813 delta t gather 9983190
 delta t build 158028 delta t repart 11832 delta t gather 9983183
 delta t build 157455 delta t repart 11695 delta t gather 9983200
 delta t build 157345 delta t repart 11861 delta t gather 9983179
 delta t build 156530 delta t repart 11791 delta t gather 9983125
 delta t build 157682 delta t repart 11795 delta t gather 9983140
 delta t build 157490 delta t repart 11912 delta t gather 9983160
 delta t build 159982 delta t repart 11834 delta t gather 9983238
 delta t build 158475 delta t repart 11779 delta t gather 9990323
 delta t build 158482 delta t repart 11765 delta t gather 9990471
 delta t build 157695 delta t repart 11871 delta t gather 9990774
 delta t build 159019 delta t repart 11730 delta t gather 9990840
[OGL LOG][Proc: 0]p_matrix: call_init: 0 [ms]
[OGL LOG][Proc: 0]p_rhs: call_init: 0 [ms]
[OGL LOG][Proc: 0]p_solution: call_init: 0 [ms]
[OGL LOG][Proc: 0]init_precond: 0.08 [ms]
[OGL LOG][StoppingCriterion.H:588] Creating stopping criterion with minIter 0 frequency 10
[OGL LOG][Proc: 0]generate_solver: 0.018 [ms]
[OGL LOG][Proc: 0]solve: 31454.6 [ms]
[OGL LOG][Proc: 0]copy_x_back: 144.116 [ms]
[OGL LOG][lduLduBase.H:303] 
Statistics:
	Time per iteration: 9645 [mu s]
	Time per residual norm calculation: 5693.000000 [mu s]
	Time per iteration and DOF: 0.150703 [ns]
	Retrieve results bandwith 0.888000 [GByte/s]
nonecudaGKOCG:  Solving for p, Initial residual = 1, Final residual = 9.18818e-05, No Iterations 3261
linear solve p 53982246
time step continuity errors : sum local = 2.25008e-10, global = 2.53824e-23, cumulative = 2.53824e-23
[OGL LOG][Proc: 0]global_index_init: 0.109 [ms]
[OGL LOG][Proc: 0]p_local_coeffs: call_update: 0.001 [ms]
[OGL LOG][Proc: 0]p_non_local_coeffs: call_update: 0 [ms]
[OGL LOG][Proc: 0]update_local_matrix_data: 139.241 [ms]
[OGL LOG][Proc: 0]update_non_local_matrix_data: 13.248 [ms]
 delta t build 50358 delta t repart 11196 delta t gather 9761813
 delta t build 49490 delta t repart 11193 delta t gather 9761818
 delta t build 156055 delta t repart 11194 delta t gather 9762024
 delta t build 156266 delta t repart 11219 delta t gather 9762028
 delta t build 154199 delta t repart 11199 delta t gather 9762043
 delta t build 153819 delta t repart 11221 delta t gather 9762071
 delta t build 152069 delta t repart 11206 delta t gather 9762092
 delta t build 155763 delta t repart 11210 delta t gather 9762131
 delta t build 153873 delta t repart 11156 delta t gather 9762139
 delta t build 153095 delta t repart 11240 delta t gather 9762152
 delta t build 154844 delta t repart 11231 delta t gather 9762146
 delta t build 156246 delta t repart 11197 delta t gather 9762167
 delta t build 152903 delta t repart 11218 delta t gather 9762169
 delta t build 153237 delta t repart 11218 delta t gather 9762174
 delta t build 155453 delta t repart 11198 delta t gather 9762187
 delta t build 157448 delta t repart 11217 delta t gather 9762161
 delta t build 153997 delta t repart 11193 delta t gather 9762178
 delta t build 155007 delta t repart 11200 delta t gather 9762204
 delta t build 157037 delta t repart 11201 delta t gather 9762201
 delta t build 155798 delta t repart 11211 delta t gather 9762209
 delta t build 156051 delta t repart 11206 delta t gather 9762217
 delta t build 156274 delta t repart 11204 delta t gather 9762222
 delta t build 154594 delta t repart 11224 delta t gather 9762196
 delta t build 155481 delta t repart 11220 delta t gather 9762212
 delta t build 154249 delta t repart 11225 delta t gather 9762193
 delta t build 156435 delta t repart 11202 delta t gather 9762223
 delta t build 156134 delta t repart 11216 delta t gather 9762221
 delta t build 156149 delta t repart 11207 delta t gather 9762187
 delta t build 155506 delta t repart 11221 delta t gather 9762204
 delta t build 155266 delta t repart 11202 delta t gather 9762222
 delta t build 155279 delta t repart 11200 delta t gather 9762208
 delta t build 156273 delta t repart 11200 delta t gather 9762220
 delta t build 155791 delta t repart 11205 delta t gather 9762218
 delta t build 154900 delta t repart 11200 delta t gather 9762212
 delta t build 155222 delta t repart 11197 delta t gather 9762226
 delta t build 155391 delta t repart 11148 delta t gather 9762218
 delta t build 151623 delta t repart 11198 delta t gather 9769024
 delta t build 153458 delta t repart 11225 delta t gather 9769130
 delta t build 156499 delta t repart 11177 delta t gather 9769168
 delta t build 154916 delta t repart 11136 delta t gather 9769218
[OGL LOG][Proc: 0]p_matrix: call_update: 10405.3 [ms]
[OGL LOG][Proc: 0]p_rhs: call_update: 225.031 [ms]
[OGL LOG][Proc: 0]init_precond: 0.039 [ms]
[OGL LOG][StoppingCriterion.H:588] Creating stopping criterion with minIter 1956 frequency 10
[OGL LOG][Proc: 0]generate_solver: 0.001 [ms]
[OGL LOG][Proc: 0]solve: 30377.5 [ms]
[OGL LOG][Proc: 0]copy_x_back: 142.938 [ms]
[OGL LOG][lduLduBase.H:303] 
Statistics:
	Time per iteration: 9372 [mu s]
	Time per residual norm calculation: 4172.000000 [mu s]
	Time per iteration and DOF: 0.146437 [ns]
	Retrieve results bandwith 0.895000 [GByte/s]
nonecudaGKOCG:  Solving for p, Initial residual = 0.718373, Final residual = 9.40813e-05, No Iterations 3241
linear solve p 41334190
time step continuity errors : sum local = 3.0983e-10, global = -1.60017e-23, cumulative = 9.3807e-24
ExecutionTime = 101.45 s  ClockTime = 110 s

Time = 5e-05

Courant Number mean: 0.00116722 max: 0.0751111
DILUPBiCGStab:  Solving for Ux, Initial residual = 0.159865, Final residual = 0.000909794, No Iterations 5
DILUPBiCGStab:  Solving for Uy, Initial residual = 0.348721, Final residual = 0.000996341, No Iterations 5
DILUPBiCGStab:  Solving for Uz, Initial residual = 0.994529, Final residual = 0.00377151, No Iterations 5
linear solve U 5633445
[OGL LOG][Proc: 0]global_index_init: 0.044 [ms]
[OGL LOG][Proc: 0]p_local_coeffs: call_update: 0 [ms]
[OGL LOG][Proc: 0]p_non_local_coeffs: call_update: 0 [ms]
[OGL LOG][Proc: 0]update_local_matrix_data: 158.042 [ms]
[OGL LOG][Proc: 0]update_non_local_matrix_data: 2.402 [ms]
 delta t build 49485 delta t repart 11982 delta t gather 9753259
 delta t build 50413 delta t repart 11957 delta t gather 9753270
 delta t build 156179 delta t repart 11915 delta t gather 9753465
 delta t build 154819 delta t repart 11860 delta t gather 9753464
 delta t build 154581 delta t repart 11915 delta t gather 9753460
 delta t build 155287 delta t repart 11893 delta t gather 9753457
 delta t build 157066 delta t repart 11878 delta t gather 9753505
 delta t build 155420 delta t repart 11867 delta t gather 9753490
 delta t build 156142 delta t repart 11953 delta t gather 9753528
 delta t build 154979 delta t repart 11861 delta t gather 9753535
 delta t build 155399 delta t repart 11904 delta t gather 9753528
 delta t build 155685 delta t repart 11898 delta t gather 9753551
 delta t build 153696 delta t repart 11853 delta t gather 9753549
 delta t build 156791 delta t repart 11971 delta t gather 9753557
 delta t build 156859 delta t repart 11828 delta t gather 9753596
 delta t build 156053 delta t repart 12018 delta t gather 9753587
 delta t build 156861 delta t repart 11951 delta t gather 9753575
 delta t build 152852 delta t repart 11839 delta t gather 9753606
 delta t build 156352 delta t repart 11898 delta t gather 9753605
 delta t build 153729 delta t repart 11833 delta t gather 9753612
 delta t build 158184 delta t repart 11924 delta t gather 9753598
 delta t build 156268 delta t repart 11877 delta t gather 9753613
 delta t build 154833 delta t repart 11891 delta t gather 9753615
 delta t build 153108 delta t repart 11921 delta t gather 9753581
 delta t build 156196 delta t repart 11844 delta t gather 9753590
 delta t build 157623 delta t repart 11845 delta t gather 9753606
 delta t build 157086 delta t repart 11847 delta t gather 9753602
 delta t build 155037 delta t repart 11954 delta t gather 9753584
 delta t build 156128 delta t repart 11852 delta t gather 9753599
 delta t build 152417 delta t repart 11952 delta t gather 9753598
 delta t build 154235 delta t repart 11867 delta t gather 9753600
 delta t build 155368 delta t repart 11989 delta t gather 9753610
 delta t build 156422 delta t repart 11830 delta t gather 9753625
 delta t build 156046 delta t repart 11935 delta t gather 9753586
 delta t build 153601 delta t repart 11893 delta t gather 9753601
 delta t build 155645 delta t repart 11921 delta t gather 9753642
 delta t build 156297 delta t repart 11992 delta t gather 9760548
 delta t build 154649 delta t repart 11935 delta t gather 9760575
 delta t build 156461 delta t repart 11905 delta t gather 9760684
 delta t build 156877 delta t repart 11848 delta t gather 9760718
[OGL LOG][Proc: 0]p_matrix: call_update: 10401.2 [ms]
[OGL LOG][Proc: 0]p_rhs: call_update: 231.511 [ms]
[OGL LOG][Proc: 0]init_precond: 0.033 [ms]
[OGL LOG][StoppingCriterion.H:588] Creating stopping criterion with minIter 1944 frequency 10
[OGL LOG][Proc: 0]generate_solver: 0.002 [ms]
[OGL LOG][Proc: 0]solve: 29809.6 [ms]
[OGL LOG][Proc: 0]copy_x_back: 146.57 [ms]
[OGL LOG][lduLduBase.H:303] 
Statistics:
	Time per iteration: 9371 [mu s]
	Time per residual norm calculation: 4603.000000 [mu s]
	Time per iteration and DOF: 0.146422 [ns]
	Retrieve results bandwith 0.873000 [GByte/s]
nonecudaGKOCG:  Solving for p, Initial residual = 0.66536, Final residual = 9.77202e-05, No Iterations 3181
linear solve p 40778404
time step continuity errors : sum local = 3.53928e-10, global = -4.70957e-23, cumulative = -3.7715e-23
[OGL LOG][Proc: 0]global_index_init: 0.036 [ms]
[OGL LOG][Proc: 0]p_local_coeffs: call_update: 0 [ms]
[OGL LOG][Proc: 0]p_non_local_coeffs: call_update: 0 [ms]
[OGL LOG][Proc: 0]update_local_matrix_data: 154.894 [ms]
[OGL LOG][Proc: 0]update_non_local_matrix_data: 0.598 [ms]
 delta t build 51264 delta t repart 11665 delta t gather 9846808
 delta t build 50647 delta t repart 11665 delta t gather 9846805
 delta t build 150528 delta t repart 11595 delta t gather 9847000
 delta t build 149613 delta t repart 11615 delta t gather 9847007
 delta t build 150250 delta t repart 11689 delta t gather 9847020
 delta t build 149101 delta t repart 11631 delta t gather 9847019
 delta t build 149650 delta t repart 11682 delta t gather 9846988
 delta t build 149032 delta t repart 11615 delta t gather 9847023
 delta t build 150676 delta t repart 11708 delta t gather 9847043
 delta t build 151660 delta t repart 11672 delta t gather 9847065
 delta t build 151664 delta t repart 11706 delta t gather 9847088
 delta t build 150784 delta t repart 11536 delta t gather 9847078
 delta t build 148930 delta t repart 11623 delta t gather 9847100
 delta t build 149135 delta t repart 11671 delta t gather 9847102
 delta t build 150192 delta t repart 11705 delta t gather 9847091
 delta t build 151850 delta t repart 11668 delta t gather 9847115
 delta t build 151934 delta t repart 11685 delta t gather 9847102
 delta t build 148505 delta t repart 11707 delta t gather 9847076
 delta t build 151253 delta t repart 11674 delta t gather 9847128
 delta t build 149757 delta t repart 11650 delta t gather 9847133
 delta t build 150557 delta t repart 11619 delta t gather 9847078
 delta t build 151642 delta t repart 11702 delta t gather 9847072
 delta t build 148816 delta t repart 11705 delta t gather 9847127
 delta t build 151777 delta t repart 11554 delta t gather 9847141
 delta t build 151299 delta t repart 11739 delta t gather 9847129
 delta t build 150242 delta t repart 11644 delta t gather 9847123
 delta t build 151244 delta t repart 11664 delta t gather 9847114
 delta t build 151545 delta t repart 11588 delta t gather 9847134
 delta t build 150305 delta t repart 11672 delta t gather 9847118
 delta t build 150991 delta t repart 11540 delta t gather 9847140
 delta t build 150929 delta t repart 11547 delta t gather 9847128
 delta t build 150921 delta t repart 11670 delta t gather 9847142
 delta t build 150747 delta t repart 11670 delta t gather 9847117
 delta t build 150862 delta t repart 11692 delta t gather 9847123
 delta t build 149519 delta t repart 11635 delta t gather 9847123
 delta t build 149992 delta t repart 11671 delta t gather 9847127
 delta t build 151511 delta t repart 11652 delta t gather 9853930
 delta t build 148062 delta t repart 11661 delta t gather 9854101
 delta t build 152282 delta t repart 11764 delta t gather 9854098
 delta t build 150188 delta t repart 11600 delta t gather 9854100
[OGL LOG][Proc: 0]p_matrix: call_update: 10490.7 [ms]
[OGL LOG][Proc: 0]p_rhs: call_update: 221.31 [ms]
[OGL LOG][Proc: 0]init_precond: 0.029 [ms]
[OGL LOG][StoppingCriterion.H:588] Creating stopping criterion with minIter 1908 frequency 10
[OGL LOG][Proc: 0]generate_solver: 0.001 [ms]
[OGL LOG][Proc: 0]solve: 29829.4 [ms]
[OGL LOG][Proc: 0]copy_x_back: 148.549 [ms]
[OGL LOG][lduLduBase.H:303] 
Statistics:
	Time per iteration: 9377 [mu s]
	Time per residual norm calculation: 3578.000000 [mu s]
	Time per iteration and DOF: 0.146516 [ns]
	Retrieve results bandwith 0.861000 [GByte/s]
nonecudaGKOCG:  Solving for p, Initial residual = 0.590889, Final residual = 8.60237e-05, No Iterations 3181
linear solve p 40872183
time step continuity errors : sum local = 3.17045e-10, global = -1.14996e-23, cumulative = -4.92146e-23
ExecutionTime = 193.09 s  ClockTime = 201 s

Time = 7.5e-05

Courant Number mean: 0.00178036 max: 0.0870157
DILUPBiCGStab:  Solving for Ux, Initial residual = 0.0661639, Final residual = 0.000272627, No Iterations 5
DILUPBiCGStab:  Solving for Uy, Initial residual = 0.138219, Final residual = 0.000287615, No Iterations 5
DILUPBiCGStab:  Solving for Uz, Initial residual = 0.437982, Final residual = 0.00198716, No Iterations 5
linear solve U 5636597
[OGL LOG][Proc: 0]global_index_init: 0.266 [ms]
[OGL LOG][Proc: 0]p_local_coeffs: call_update: 0 [ms]
[OGL LOG][Proc: 0]p_non_local_coeffs: call_update: 0 [ms]
[OGL LOG][Proc: 0]update_local_matrix_data: 158.2 [ms]
[OGL LOG][Proc: 0]update_non_local_matrix_data: 2.039 [ms]
 delta t build 153493 delta t repart 12200 delta t gather 9832224
 delta t build 153483 delta t repart 12022 delta t gather 9832299
 delta t build 154101 delta t repart 14315 delta t gather 9832286
 delta t build 154326 delta t repart 14326 delta t gather 9832296
 delta t build 151406 delta t repart 12097 delta t gather 9832325
 delta t build 150637 delta t repart 12196 delta t gather 9832340
 delta t build 152233 delta t repart 12197 delta t gather 9832339
 delta t build 153503 delta t repart 12199 delta t gather 9832345
 delta t build 154579 delta t repart 12189 delta t gather 9832351
 delta t build 154625 delta t repart 12195 delta t gather 9832359
 delta t build 149629 delta t repart 12197 delta t gather 9832365
 delta t build 154296 delta t repart 12210 delta t gather 9832340
 delta t build 152251 delta t repart 12204 delta t gather 9832348
 delta t build 153663 delta t repart 12038 delta t gather 9832359
 delta t build 152920 delta t repart 14370 delta t gather 9832362
 delta t build 151494 delta t repart 12201 delta t gather 9832345
 delta t build 151911 delta t repart 12189 delta t gather 9832366
 delta t build 148025 delta t repart 12195 delta t gather 9832361
 delta t build 48277 delta t repart 12113 delta t gather 9844289
 delta t build 48804 delta t repart 12121 delta t gather 9844290
 delta t build 154509 delta t repart 12109 delta t gather 9844336
 delta t build 152804 delta t repart 12202 delta t gather 9844331
 delta t build 153965 delta t repart 12123 delta t gather 9844337
 delta t build 153395 delta t repart 12120 delta t gather 9844359
 delta t build 152571 delta t repart 12123 delta t gather 9844357
 delta t build 154326 delta t repart 12026 delta t gather 9844365
 delta t build 153219 delta t repart 11960 delta t gather 9844370
 delta t build 154822 delta t repart 12190 delta t gather 9844376
 delta t build 153201 delta t repart 12146 delta t gather 9844367
 delta t build 150018 delta t repart 12067 delta t gather 9844379
 delta t build 151149 delta t repart 12150 delta t gather 9844390
 delta t build 153681 delta t repart 12052 delta t gather 9844390
 delta t build 153635 delta t repart 12123 delta t gather 9844383
 delta t build 153244 delta t repart 12037 delta t gather 9844396
 delta t build 151909 delta t repart 12114 delta t gather 9844398
 delta t build 152505 delta t repart 12116 delta t gather 9844395
 delta t build 153686 delta t repart 12205 delta t gather 9860468
 delta t build 151560 delta t repart 12094 delta t gather 9861070
 delta t build 152396 delta t repart 12004 delta t gather 9861308
 delta t build 155794 delta t repart 14440 delta t gather 9861407
[OGL LOG][Proc: 0]p_matrix: call_update: 10491.3 [ms]
[OGL LOG][Proc: 0]p_rhs: call_update: 231.202 [ms]
[OGL LOG][Proc: 0]init_precond: 0.031 [ms]
[OGL LOG][StoppingCriterion.H:588] Creating stopping criterion with minIter 1908 frequency 10
[OGL LOG][Proc: 0]generate_solver: 0.001 [ms]
[OGL LOG][Proc: 0]solve: 29354.2 [ms]
[OGL LOG][Proc: 0]copy_x_back: 147.488 [ms]
[OGL LOG][lduLduBase.H:303] 
Statistics:
	Time per iteration: 9375 [mu s]
	Time per residual norm calculation: 5645.000000 [mu s]
	Time per iteration and DOF: 0.146484 [ns]
	Retrieve results bandwith 0.867000 [GByte/s]
nonecudaGKOCG:  Solving for p, Initial residual = 0.563526, Final residual = 9.88378e-05, No Iterations 3131
linear solve p 40412006
time step continuity errors : sum local = 2.54012e-10, global = -5.96724e-23, cumulative = -1.08887e-22
[OGL LOG][Proc: 0]global_index_init: 0.227 [ms]
[OGL LOG][Proc: 0]p_local_coeffs: call_update: 0 [ms]
[OGL LOG][Proc: 0]p_non_local_coeffs: call_update: 0 [ms]
[OGL LOG][Proc: 0]update_local_matrix_data: 153.468 [ms]
[OGL LOG][Proc: 0]update_non_local_matrix_data: 0.969 [ms]
 delta t build 149980 delta t repart 11432 delta t gather 9835655
 delta t build 150658 delta t repart 11421 delta t gather 9835695
 delta t build 151931 delta t repart 11267 delta t gather 9835684
 delta t build 146945 delta t repart 11420 delta t gather 9835628
 delta t build 148854 delta t repart 11411 delta t gather 9835648
 delta t build 151111 delta t repart 11421 delta t gather 9835668
 delta t build 152060 delta t repart 11256 delta t gather 9835638
 delta t build 150279 delta t repart 11369 delta t gather 9835693
 delta t build 148798 delta t repart 11420 delta t gather 9835646
 delta t build 150063 delta t repart 11440 delta t gather 9835698
 delta t build 149406 delta t repart 11369 delta t gather 9835700
 delta t build 148798 delta t repart 11401 delta t gather 9835673
 delta t build 151416 delta t repart 11462 delta t gather 9835677
 delta t build 152218 delta t repart 11424 delta t gather 9835699
 delta t build 151855 delta t repart 11355 delta t gather 9835645
 delta t build 151026 delta t repart 11420 delta t gather 9835686
 delta t build 149765 delta t repart 11342 delta t gather 9835689
 delta t build 150905 delta t repart 11275 delta t gather 9835682
 delta t build 50065 delta t repart 11389 delta t gather 9847798
 delta t build 152852 delta t repart 11398 delta t gather 9847820
 delta t build 51061 delta t repart 11394 delta t gather 9847845
 delta t build 128863 delta t repart 11416 delta t gather 9847888
 delta t build 148882 delta t repart 11416 delta t gather 9847936
 delta t build 149237 delta t repart 11418 delta t gather 9847940
 delta t build 149736 delta t repart 11405 delta t gather 9847938
 delta t build 150257 delta t repart 11389 delta t gather 9847931
 delta t build 149649 delta t repart 11392 delta t gather 9847958
 delta t build 151281 delta t repart 11413 delta t gather 9847947
 delta t build 150365 delta t repart 11390 delta t gather 9847957
 delta t build 149985 delta t repart 11357 delta t gather 9847951
 delta t build 149310 delta t repart 11391 delta t gather 9847944
 delta t build 153324 delta t repart 11389 delta t gather 9847941
 delta t build 149838 delta t repart 11378 delta t gather 9847953
 delta t build 146954 delta t repart 11359 delta t gather 9847949
 delta t build 150861 delta t repart 11394 delta t gather 9847949
 delta t build 148840 delta t repart 11430 delta t gather 9847931
 delta t build 151127 delta t repart 11430 delta t gather 9863289
 delta t build 152867 delta t repart 11528 delta t gather 9863830
 delta t build 132779 delta t repart 11396 delta t gather 9863998
 delta t build 149538 delta t repart 11467 delta t gather 9864145
[OGL LOG][Proc: 0]p_matrix: call_update: 10485.8 [ms]
[OGL LOG][Proc: 0]p_rhs: call_update: 221.954 [ms]
[OGL LOG][Proc: 0]init_precond: 0.031 [ms]
[OGL LOG][StoppingCriterion.H:588] Creating stopping criterion with minIter 1878 frequency 10
[OGL LOG][Proc: 0]generate_solver: 0.002 [ms]
[OGL LOG][Proc: 0]solve: 29364 [ms]
[OGL LOG][Proc: 0]copy_x_back: 142.217 [ms]
[OGL LOG][lduLduBase.H:303] 
Statistics:
	Time per iteration: 9378 [mu s]
	Time per residual norm calculation: 5646.000000 [mu s]
	Time per iteration and DOF: 0.146531 [ns]
	Retrieve results bandwith 0.899000 [GByte/s]
nonecudaGKOCG:  Solving for p, Initial residual = 0.505719, Final residual = 9.3848e-05, No Iterations 3131
linear solve p 40395094
time step continuity errors : sum local = 2.35992e-10, global = 3.82228e-24, cumulative = -1.05065e-22
ExecutionTime = 283.89 s  ClockTime = 293 s

Time = 0.0001

Courant Number mean: 0.00220756 max: 0.0903125
DILUPBiCGStab:  Solving for Ux, Initial residual = 0.0437051, Final residual = 0.000122161, No Iterations 5
DILUPBiCGStab:  Solving for Uy, Initial residual = 0.0872262, Final residual = 0.00011581, No Iterations 5
DILUPBiCGStab:  Solving for Uz, Initial residual = 0.134075, Final residual = 0.000406209, No Iterations 5
linear solve U 5600984
[OGL LOG][Proc: 0]global_index_init: 0.298 [ms]
[OGL LOG][Proc: 0]p_local_coeffs: call_update: 0 [ms]
[OGL LOG][Proc: 0]p_non_local_coeffs: call_update: 0 [ms]
[OGL LOG][Proc: 0]update_local_matrix_data: 158.216 [ms]
[OGL LOG][Proc: 0]update_non_local_matrix_data: 2.707 [ms]
 delta t build 48033 delta t repart 11480 delta t gather 9789809
 delta t build 48970 delta t repart 11483 delta t gather 9789872
 delta t build 155752 delta t repart 11383 delta t gather 9790028
 delta t build 153674 delta t repart 11506 delta t gather 9790018
 delta t build 157357 delta t repart 11523 delta t gather 9790102
 delta t build 154200 delta t repart 11436 delta t gather 9790116
 delta t build 154308 delta t repart 11363 delta t gather 9790130
 delta t build 154004 delta t repart 11508 delta t gather 9790189
 delta t build 153450 delta t repart 11513 delta t gather 9790186
 delta t build 155549 delta t repart 11442 delta t gather 9790190
 delta t build 157419 delta t repart 11484 delta t gather 9790206
 delta t build 157152 delta t repart 11478 delta t gather 9790208
 delta t build 155762 delta t repart 11446 delta t gather 9790227
 delta t build 155994 delta t repart 11484 delta t gather 9790236
 delta t build 156099 delta t repart 11490 delta t gather 9790239
 delta t build 157781 delta t repart 11513 delta t gather 9790230
 delta t build 157482 delta t repart 11366 delta t gather 9790190
 delta t build 155776 delta t repart 11475 delta t gather 9790218
 delta t build 154425 delta t repart 11768 delta t gather 9790195
 delta t build 156665 delta t repart 11487 delta t gather 9790206
 delta t build 156561 delta t repart 11482 delta t gather 9790253
 delta t build 156536 delta t repart 11520 delta t gather 9790265
 delta t build 156908 delta t repart 11473 delta t gather 9790246
 delta t build 156331 delta t repart 11473 delta t gather 9790249
 delta t build 149908 delta t repart 11535 delta t gather 9790208
 delta t build 155101 delta t repart 11520 delta t gather 9790245
 delta t build 130200 delta t repart 11481 delta t gather 9790246
 delta t build 156861 delta t repart 11506 delta t gather 9790253
 delta t build 155361 delta t repart 11484 delta t gather 9790221
 delta t build 151189 delta t repart 11491 delta t gather 9790236
 delta t build 156605 delta t repart 11487 delta t gather 9790251
 delta t build 155674 delta t repart 11509 delta t gather 9790235
 delta t build 155570 delta t repart 11479 delta t gather 9790253
 delta t build 155668 delta t repart 11497 delta t gather 9790233
 delta t build 155560 delta t repart 11427 delta t gather 9790260
 delta t build 156042 delta t repart 11481 delta t gather 9790268
 delta t build 155586 delta t repart 11517 delta t gather 9797155
 delta t build 154958 delta t repart 11496 delta t gather 9797187
 delta t build 152624 delta t repart 11486 delta t gather 9797318
 delta t build 157306 delta t repart 17941 delta t gather 9797338
[OGL LOG][Proc: 0]p_matrix: call_update: 10441.3 [ms]
[OGL LOG][Proc: 0]p_rhs: call_update: 224.278 [ms]
[OGL LOG][Proc: 0]init_precond: 0.035 [ms]
[OGL LOG][StoppingCriterion.H:588] Creating stopping criterion with minIter 1878 frequency 10
[OGL LOG][Proc: 0]generate_solver: 0.001 [ms]
[OGL LOG][Proc: 0]solve: 29055.6 [ms]
[OGL LOG][Proc: 0]copy_x_back: 153.615 [ms]
[OGL LOG][lduLduBase.H:303] 
Statistics:
	Time per iteration: 9369 [mu s]
	Time per residual norm calculation: 4602.000000 [mu s]
	Time per iteration and DOF: 0.146391 [ns]
	Retrieve results bandwith 0.833000 [GByte/s]
nonecudaGKOCG:  Solving for p, Initial residual = 0.328315, Final residual = 8.99532e-05, No Iterations 3101
linear solve p 40064553
time step continuity errors : sum local = 1.96111e-10, global = -6.70226e-24, cumulative = -1.11767e-22
[OGL LOG][Proc: 0]global_index_init: 0.036 [ms]
[OGL LOG][Proc: 0]p_local_coeffs: call_update: 0 [ms]
[OGL LOG][Proc: 0]p_non_local_coeffs: call_update: 0 [ms]
[OGL LOG][Proc: 0]update_local_matrix_data: 154.482 [ms]
[OGL LOG][Proc: 0]update_non_local_matrix_data: 2.021 [ms]
 delta t build 51918 delta t repart 11384 delta t gather 9842878
 delta t build 52759 delta t repart 11381 delta t gather 9842884
 delta t build 154755 delta t repart 11417 delta t gather 9843062
 delta t build 157098 delta t repart 11339 delta t gather 9843054
 delta t build 155926 delta t repart 11370 delta t gather 9843037
 delta t build 156053 delta t repart 11420 delta t gather 9843036
 delta t build 156031 delta t repart 11304 delta t gather 9843077
 delta t build 156513 delta t repart 11394 delta t gather 9843091
 delta t build 156594 delta t repart 11403 delta t gather 9843074
 delta t build 155993 delta t repart 11302 delta t gather 9843110
 delta t build 156975 delta t repart 11335 delta t gather 9843101
 delta t build 156021 delta t repart 11300 delta t gather 9843159
 delta t build 156280 delta t repart 11375 delta t gather 9843173
 delta t build 156681 delta t repart 11456 delta t gather 9843163
 delta t build 150554 delta t repart 11383 delta t gather 9843158
 delta t build 153730 delta t repart 11351 delta t gather 9843138
 delta t build 157034 delta t repart 11393 delta t gather 9843160
 delta t build 155887 delta t repart 11388 delta t gather 9843175
 delta t build 153737 delta t repart 11386 delta t gather 9843187
 delta t build 156674 delta t repart 11366 delta t gather 9843189
 delta t build 156463 delta t repart 11416 delta t gather 9843132
 delta t build 152184 delta t repart 11415 delta t gather 9843196
 delta t build 154644 delta t repart 11329 delta t gather 9843164
 delta t build 155938 delta t repart 11387 delta t gather 9843188
 delta t build 155913 delta t repart 11293 delta t gather 9843190
 delta t build 157632 delta t repart 11361 delta t gather 9843154
 delta t build 155500 delta t repart 11396 delta t gather 9843176
 delta t build 155422 delta t repart 11404 delta t gather 9843192
 delta t build 156589 delta t repart 11378 delta t gather 9843152
 delta t build 155515 delta t repart 11319 delta t gather 9843142
 delta t build 157208 delta t repart 11369 delta t gather 9843193
 delta t build 156719 delta t repart 11433 delta t gather 9843145
 delta t build 157268 delta t repart 11389 delta t gather 9843191
 delta t build 156049 delta t repart 11357 delta t gather 9843163
 delta t build 156674 delta t repart 11385 delta t gather 9843185
 delta t build 154866 delta t repart 11432 delta t gather 9843197
 delta t build 156713 delta t repart 11453 delta t gather 9849820
 delta t build 129499 delta t repart 11371 delta t gather 9850026
 delta t build 156410 delta t repart 11405 delta t gather 9850122
 delta t build 154134 delta t repart 11409 delta t gather 9850211
[OGL LOG][Proc: 0]p_matrix: call_update: 10486.1 [ms]
[OGL LOG][Proc: 0]p_rhs: call_update: 220.551 [ms]
[OGL LOG][Proc: 0]init_precond: 0.032 [ms]
[OGL LOG][StoppingCriterion.H:588] Creating stopping criterion with minIter 1860 frequency 10
[OGL LOG][Proc: 0]generate_solver: 0.002 [ms]
[OGL LOG][Proc: 0]solve: 29070.3 [ms]
[OGL LOG][Proc: 0]copy_x_back: 136.911 [ms]
[OGL LOG][lduLduBase.H:303] 
Statistics:
	Time per iteration: 9374 [mu s]
	Time per residual norm calculation: 5636.000000 [mu s]
	Time per iteration and DOF: 0.146469 [ns]
	Retrieve results bandwith 0.934000 [GByte/s]
nonecudaGKOCG:  Solving for p, Initial residual = 0.273584, Final residual = 8.3395e-05, No Iterations 3101
linear solve p 40119819
time step continuity errors : sum local = 1.83139e-10, global = 2.06376e-23, cumulative = -9.11294e-23
ExecutionTime = 374.07 s  ClockTime = 383 s

Time = 0.000125

Courant Number mean: 0.00255331 max: 0.0919041
DILUPBiCGStab:  Solving for Ux, Initial residual = 0.0332711, Final residual = 7.7024e-05, No Iterations 5
DILUPBiCGStab:  Solving for Uy, Initial residual = 0.0630105, Final residual = 7.07241e-05, No Iterations 5
DILUPBiCGStab:  Solving for Uz, Initial residual = 0.0890825, Final residual = 0.00026419, No Iterations 5
linear solve U 5605104
[OGL LOG][Proc: 0]global_index_init: 0.432 [ms]
[OGL LOG][Proc: 0]p_local_coeffs: call_update: 0 [ms]
[OGL LOG][Proc: 0]p_non_local_coeffs: call_update: 0 [ms]
[OGL LOG][Proc: 0]update_local_matrix_data: 156.335 [ms]
[OGL LOG][Proc: 0]update_non_local_matrix_data: 2.496 [ms]
 delta t build 155227 delta t repart 14011 delta t gather 9794732
 delta t build 157587 delta t repart 11665 delta t gather 9794729
 delta t build 157143 delta t repart 11665 delta t gather 9794751
 delta t build 156043 delta t repart 14074 delta t gather 9794762
 delta t build 158922 delta t repart 14016 delta t gather 9794755
 delta t build 155454 delta t repart 11657 delta t gather 9794811
 delta t build 156535 delta t repart 11604 delta t gather 9794801
 delta t build 155599 delta t repart 11665 delta t gather 9794799
 delta t build 153462 delta t repart 14075 delta t gather 9794812
 delta t build 154625 delta t repart 11540 delta t gather 9794812
 delta t build 155077 delta t repart 11653 delta t gather 9794798
 delta t build 157770 delta t repart 14013 delta t gather 9794812
 delta t build 158949 delta t repart 11663 delta t gather 9794805
 delta t build 155300 delta t repart 14013 delta t gather 9794804
 delta t build 158694 delta t repart 14013 delta t gather 9794790
 delta t build 155050 delta t repart 14043 delta t gather 9794812
 delta t build 153164 delta t repart 14060 delta t gather 9794818
 delta t build 157030 delta t repart 14045 delta t gather 9794808
 delta t build 49983 delta t repart 11572 delta t gather 9807328
 delta t build 50482 delta t repart 11499 delta t gather 9807332
 delta t build 155787 delta t repart 11633 delta t gather 9807398
 delta t build 155703 delta t repart 11525 delta t gather 9807417
 delta t build 157871 delta t repart 11605 delta t gather 9807444
 delta t build 156668 delta t repart 11662 delta t gather 9807441
 delta t build 157438 delta t repart 11664 delta t gather 9807454
 delta t build 157008 delta t repart 11657 delta t gather 9807450
 delta t build 156726 delta t repart 11658 delta t gather 9807473
 delta t build 157522 delta t repart 11558 delta t gather 9807480
 delta t build 157701 delta t repart 11472 delta t gather 9807483
 delta t build 157689 delta t repart 11619 delta t gather 9807475
 delta t build 156385 delta t repart 11654 delta t gather 9807478
 delta t build 155964 delta t repart 11483 delta t gather 9807472
 delta t build 155756 delta t repart 11632 delta t gather 9807499
 delta t build 158395 delta t repart 11597 delta t gather 9807478
 delta t build 157992 delta t repart 11554 delta t gather 9807490
 delta t build 158236 delta t repart 11597 delta t gather 9807474
 delta t build 157252 delta t repart 11587 delta t gather 9824038
 delta t build 157616 delta t repart 14038 delta t gather 9824309
 delta t build 155583 delta t repart 11638 delta t gather 9824481
 delta t build 158170 delta t repart 14056 delta t gather 9824844
[OGL LOG][Proc: 0]p_matrix: call_update: 10456.7 [ms]
[OGL LOG][Proc: 0]p_rhs: call_update: 221.13 [ms]
[OGL LOG][Proc: 0]init_precond: 0.031 [ms]
[OGL LOG][StoppingCriterion.H:588] Creating stopping criterion with minIter 1860 frequency 10
[OGL LOG][Proc: 0]generate_solver: 0.002 [ms]
[OGL LOG][Proc: 0]solve: 28115.9 [ms]
[OGL LOG][Proc: 0]copy_x_back: 140.166 [ms]
[OGL LOG][lduLduBase.H:303] 
Statistics:
	Time per iteration: 9368 [mu s]
	Time per residual norm calculation: 5490.000000 [mu s]
	Time per iteration and DOF: 0.146375 [ns]
	Retrieve results bandwith 0.913000 [GByte/s]
nonecudaGKOCG:  Solving for p, Initial residual = 0.220806, Final residual = 8.889e-05, No Iterations 3001
linear solve p 39120461
time step continuity errors : sum local = 1.71121e-10, global = -7.91531e-23, cumulative = -1.70283e-22
[OGL LOG][Proc: 0]global_index_init: 0.141 [ms]
[OGL LOG][Proc: 0]p_local_coeffs: call_update: 0 [ms]
[OGL LOG][Proc: 0]p_non_local_coeffs: call_update: 0 [ms]
[OGL LOG][Proc: 0]update_local_matrix_data: 154.53 [ms]
[OGL LOG][Proc: 0]update_non_local_matrix_data: 1.073 [ms]
 delta t build 134734 delta t repart 24503 delta t gather 9850181
 delta t build 152259 delta t repart 11608 delta t gather 9850235
 delta t build 154531 delta t repart 11525 delta t gather 9850268
 delta t build 155541 delta t repart 11642 delta t gather 9850251
 delta t build 150436 delta t repart 11666 delta t gather 9850271
 delta t build 155938 delta t repart 11617 delta t gather 9850226
 delta t build 154494 delta t repart 11670 delta t gather 9850248
 delta t build 151901 delta t repart 11678 delta t gather 9850283
 delta t build 157307 delta t repart 11534 delta t gather 9850300
 delta t build 154550 delta t repart 24519 delta t gather 9850293
 delta t build 156037 delta t repart 24562 delta t gather 9850266
 delta t build 155149 delta t repart 11561 delta t gather 9850304
 delta t build 155522 delta t repart 11649 delta t gather 9850289
 delta t build 153942 delta t repart 11624 delta t gather 9850298
 delta t build 152580 delta t repart 11635 delta t gather 9850301
 delta t build 154212 delta t repart 11612 delta t gather 9850296
 delta t build 156826 delta t repart 24514 delta t gather 9850303
 delta t build 154144 delta t repart 11681 delta t gather 9850299
 delta t build 50197 delta t repart 11590 delta t gather 9863139
 delta t build 50942 delta t repart 11597 delta t gather 9863204
 delta t build 156172 delta t repart 11604 delta t gather 9863265
 delta t build 157540 delta t repart 11620 delta t gather 9863292
 delta t build 153207 delta t repart 11608 delta t gather 9863339
 delta t build 132824 delta t repart 11619 delta t gather 9863332
 delta t build 155465 delta t repart 11612 delta t gather 9863348
 delta t build 154708 delta t repart 11593 delta t gather 9863374
 delta t build 155794 delta t repart 11606 delta t gather 9863371
 delta t build 155924 delta t repart 11592 delta t gather 9863395
 delta t build 154605 delta t repart 11596 delta t gather 9863381
 delta t build 154749 delta t repart 11601 delta t gather 9863412
 delta t build 154554 delta t repart 11621 delta t gather 9863399
 delta t build 153966 delta t repart 11596 delta t gather 9863389
 delta t build 154550 delta t repart 11612 delta t gather 9863405
 delta t build 154804 delta t repart 11609 delta t gather 9863395
 delta t build 154313 delta t repart 11590 delta t gather 9863417
 delta t build 157476 delta t repart 11612 delta t gather 9863407
 delta t build 154885 delta t repart 11629 delta t gather 9876503
 delta t build 135689 delta t repart 11490 delta t gather 9876695
 delta t build 158330 delta t repart 24596 delta t gather 9876687
 delta t build 155776 delta t repart 11482 delta t gather 9877133
[OGL LOG][Proc: 0]p_matrix: call_update: 10515.7 [ms]
[OGL LOG][Proc: 0]p_rhs: call_update: 221.746 [ms]
[OGL LOG][Proc: 0]init_precond: 0.03 [ms]
[OGL LOG][StoppingCriterion.H:588] Creating stopping criterion with minIter 1800 frequency 10
[OGL LOG][Proc: 0]generate_solver: 0.002 [ms]
[OGL LOG][Proc: 0]solve: 28147 [ms]
[OGL LOG][Proc: 0]copy_x_back: 159.823 [ms]
[OGL LOG][lduLduBase.H:303] 
Statistics:
	Time per iteration: 9379 [mu s]
	Time per residual norm calculation: 5480.000000 [mu s]
	Time per iteration and DOF: 0.146547 [ns]
	Retrieve results bandwith 0.800000 [GByte/s]
nonecudaGKOCG:  Solving for p, Initial residual = 0.18646, Final residual = 8.07425e-05, No Iterations 3001
linear solve p 39233257
time step continuity errors : sum local = 1.54748e-10, global = 1.00027e-23, cumulative = -1.6028e-22
ExecutionTime = 462.36 s  ClockTime = 472 s

Time = 0.00015

Courant Number mean: 0.00284851 max: 0.0928883
DILUPBiCGStab:  Solving for Ux, Initial residual = 0.0270566, Final residual = 5.33036e-05, No Iterations 5
DILUPBiCGStab:  Solving for Uy, Initial residual = 0.0495067, Final residual = 3.66328e-05, No Iterations 5
DILUPBiCGStab:  Solving for Uz, Initial residual = 0.0776232, Final residual = 0.000163535, No Iterations 5
linear solve U 5624639
[OGL LOG][Proc: 0]global_index_init: 0.038 [ms]
[OGL LOG][Proc: 0]p_local_coeffs: call_update: 0 [ms]
[OGL LOG][Proc: 0]p_non_local_coeffs: call_update: 0 [ms]
[OGL LOG][Proc: 0]update_local_matrix_data: 159.106 [ms]
[OGL LOG][Proc: 0]update_non_local_matrix_data: 1.061 [ms]
 delta t build 154487 delta t repart 16586 delta t gather 9828486
 delta t build 156059 delta t repart 15424 delta t gather 9828533
 delta t build 155690 delta t repart 16586 delta t gather 9828562
 delta t build 151784 delta t repart 15425 delta t gather 9828549
 delta t build 153982 delta t repart 15398 delta t gather 9828550
 delta t build 154758 delta t repart 15461 delta t gather 9828576
 delta t build 155120 delta t repart 16582 delta t gather 9828581
 delta t build 146485 delta t repart 16502 delta t gather 9828592
 delta t build 136038 delta t repart 15396 delta t gather 9828592
 delta t build 154576 delta t repart 15467 delta t gather 9828609
 delta t build 154323 delta t repart 15345 delta t gather 9828605
 delta t build 153424 delta t repart 15296 delta t gather 9828589
 delta t build 155550 delta t repart 15462 delta t gather 9828600
 delta t build 154735 delta t repart 15335 delta t gather 9828597
 delta t build 155421 delta t repart 16526 delta t gather 9828593
 delta t build 154312 delta t repart 15321 delta t gather 9828601
 delta t build 48187 delta t repart 15393 delta t gather 9858238
 delta t build 49019 delta t repart 15398 delta t gather 9858314
 delta t build 153142 delta t repart 15417 delta t gather 9858384
 delta t build 153480 delta t repart 15421 delta t gather 9858402
 delta t build 153588 delta t repart 15311 delta t gather 9858369
 delta t build 155866 delta t repart 15420 delta t gather 9858416
 delta t build 155786 delta t repart 15342 delta t gather 9858428
 delta t build 154178 delta t repart 15421 delta t gather 9858431
 delta t build 153929 delta t repart 15423 delta t gather 9858445
 delta t build 155538 delta t repart 15347 delta t gather 9858462
 delta t build 153808 delta t repart 15423 delta t gather 9858461
 delta t build 155592 delta t repart 15398 delta t gather 9858468
 delta t build 155044 delta t repart 15419 delta t gather 9858464
 delta t build 155026 delta t repart 15432 delta t gather 9858457
 delta t build 153378 delta t repart 15429 delta t gather 9858472
 delta t build 154966 delta t repart 15420 delta t gather 9858470
 delta t build 153829 delta t repart 15397 delta t gather 9858481
 delta t build 131438 delta t repart 15429 delta t gather 9858471
 delta t build 154887 delta t repart 15416 delta t gather 9858486
 delta t build 149930 delta t repart 16575 delta t gather 9858501
 delta t build 155197 delta t repart 15379 delta t gather 9866009
 delta t build 153229 delta t repart 16581 delta t gather 9866153
 delta t build 156812 delta t repart 16484 delta t gather 9866333
 delta t build 153172 delta t repart 15425 delta t gather 9866345
[OGL LOG][Proc: 0]p_matrix: call_update: 10502.3 [ms]
[OGL LOG][Proc: 0]p_rhs: call_update: 221.066 [ms]
[OGL LOG][Proc: 0]init_precond: 0.031 [ms]
[OGL LOG][StoppingCriterion.H:588] Creating stopping criterion with minIter 1800 frequency 10
[OGL LOG][Proc: 0]generate_solver: 0.002 [ms]
[OGL LOG][Proc: 0]solve: 16587.5 [ms]
[OGL LOG][Proc: 0]copy_x_back: 139.849 [ms]
[OGL LOG][lduLduBase.H:303] 
Statistics:
	Time per iteration: 9210 [mu s]
	Time per residual norm calculation: 4607.000000 [mu s]
	Time per iteration and DOF: 0.143906 [ns]
	Retrieve results bandwith 0.915000 [GByte/s]
nonecudaGKOCG:  Solving for p, Initial residual = 0.133551, Final residual = 9.74109e-05, No Iterations 1801
linear solve p 27636469
time step continuity errors : sum local = 1.8778e-10, global = -2.39727e-23, cumulative = -1.84253e-22
[OGL LOG][Proc: 0]global_index_init: 0.034 [ms]
[OGL LOG][Proc: 0]p_local_coeffs: call_update: 0 [ms]
[OGL LOG][Proc: 0]p_non_local_coeffs: call_update: 0 [ms]
[OGL LOG][Proc: 0]update_local_matrix_data: 153.618 [ms]
[OGL LOG][Proc: 0]update_non_local_matrix_data: 0.662 [ms]
 delta t build 157409 delta t repart 13692 delta t gather 9826519
 delta t build 157449 delta t repart 13697 delta t gather 9826514
 delta t build 156603 delta t repart 13777 delta t gather 9826560
 delta t build 158118 delta t repart 13603 delta t gather 9826544
 delta t build 158360 delta t repart 13618 delta t gather 9826565
 delta t build 156855 delta t repart 13593 delta t gather 9826552
 delta t build 155357 delta t repart 11521 delta t gather 9826554
 delta t build 153419 delta t repart 13605 delta t gather 9826572
 delta t build 155671 delta t repart 13780 delta t gather 9826588
 delta t build 156339 delta t repart 13691 delta t gather 9826585
 delta t build 155678 delta t repart 13664 delta t gather 9826559
 delta t build 157587 delta t repart 11507 delta t gather 9826588
 delta t build 155048 delta t repart 13779 delta t gather 9826582
 delta t build 158999 delta t repart 13737 delta t gather 9826581
 delta t build 157771 delta t repart 13772 delta t gather 9826600
 delta t build 157784 delta t repart 11539 delta t gather 9826582
 delta t build 157992 delta t repart 11447 delta t gather 9826586
 delta t build 156290 delta t repart 13750 delta t gather 9826598
 delta t build 50678 delta t repart 11569 delta t gather 9856523
 delta t build 50035 delta t repart 11569 delta t gather 9856533
 delta t build 156260 delta t repart 13731 delta t gather 9856565
 delta t build 154121 delta t repart 13735 delta t gather 9856630
 delta t build 157561 delta t repart 11569 delta t gather 9856657
 delta t build 157141 delta t repart 13719 delta t gather 9856642
 delta t build 158891 delta t repart 11568 delta t gather 9856661
 delta t build 157468 delta t repart 13729 delta t gather 9856644
 delta t build 151377 delta t repart 13729 delta t gather 9856671
 delta t build 156540 delta t repart 13725 delta t gather 9856649
 delta t build 156851 delta t repart 11569 delta t gather 9856668
 delta t build 156433 delta t repart 13671 delta t gather 9856640
 delta t build 155380 delta t repart 11578 delta t gather 9856625
 delta t build 155815 delta t repart 13728 delta t gather 9856674
 delta t build 157767 delta t repart 11568 delta t gather 9856684
 delta t build 157759 delta t repart 11570 delta t gather 9856679
 delta t build 154661 delta t repart 13733 delta t gather 9856677
 delta t build 157633 delta t repart 11491 delta t gather 9856681
 delta t build 159258 delta t repart 13682 delta t gather 9863730
 delta t build 133887 delta t repart 13608 delta t gather 9863806
 delta t build 155799 delta t repart 13736 delta t gather 9863820
 delta t build 156683 delta t repart 11438 delta t gather 9863828
[OGL LOG][Proc: 0]p_matrix: call_update: 10497.6 [ms]
[OGL LOG][Proc: 0]p_rhs: call_update: 223.259 [ms]
[OGL LOG][Proc: 0]init_precond: 0.029 [ms]
[OGL LOG][StoppingCriterion.H:588] Creating stopping criterion with minIter 1080 frequency 10
[OGL LOG][Proc: 0]generate_solver: 0.001 [ms]
[OGL LOG][Proc: 0]solve: 12774.2 [ms]
[OGL LOG][Proc: 0]copy_x_back: 140.689 [ms]
[OGL LOG][lduLduBase.H:303] 
Statistics:
	Time per iteration: 9317 [mu s]
	Time per residual norm calculation: 4160.000000 [mu s]
	Time per iteration and DOF: 0.145578 [ns]
	Retrieve results bandwith 0.909000 [GByte/s]
nonecudaGKOCG:  Solving for p, Initial residual = 0.110973, Final residual = 9.88185e-05, No Iterations 1371
linear solve p 23835118
time step continuity errors : sum local = 1.86204e-10, global = -3.90352e-23, cumulative = -2.23288e-22
ExecutionTime = 523.93 s  ClockTime = 533 s

Time = 0.000175

Courant Number mean: 0.00310896 max: 0.0935749
DILUPBiCGStab:  Solving for Ux, Initial residual = 0.0228943, Final residual = 3.93039e-05, No Iterations 5
DILUPBiCGStab:  Solving for Uy, Initial residual = 0.0407664, Final residual = 3.30333e-05, No Iterations 5
DILUPBiCGStab:  Solving for Uz, Initial residual = 0.0671963, Final residual = 0.000110622, No Iterations 5
linear solve U 5595393
[OGL LOG][Proc: 0]global_index_init: 0.234 [ms]
[OGL LOG][Proc: 0]p_local_coeffs: call_update: 0 [ms]
[OGL LOG][Proc: 0]p_non_local_coeffs: call_update: 0 [ms]
[OGL LOG][Proc: 0]update_local_matrix_data: 158.914 [ms]
[OGL LOG][Proc: 0]update_non_local_matrix_data: 1.211 [ms]
 delta t build 48160 delta t repart 11595 delta t gather 9793044
 delta t build 48947 delta t repart 11552 delta t gather 9793038
 delta t build 152549 delta t repart 11592 delta t gather 9793206
 delta t build 153950 delta t repart 14803 delta t gather 9793283
 delta t build 154143 delta t repart 14830 delta t gather 9793293
 delta t build 149455 delta t repart 14764 delta t gather 9793308
 delta t build 153868 delta t repart 14826 delta t gather 9793363
 delta t build 155024 delta t repart 11640 delta t gather 9793374
 delta t build 154380 delta t repart 11527 delta t gather 9793380
 delta t build 154860 delta t repart 11619 delta t gather 9793381
 delta t build 152488 delta t repart 11620 delta t gather 9793377
 delta t build 156128 delta t repart 11724 delta t gather 9793371
 delta t build 156304 delta t repart 11717 delta t gather 9793379
 delta t build 154625 delta t repart 11653 delta t gather 9793374
 delta t build 153750 delta t repart 11572 delta t gather 9793398
 delta t build 154984 delta t repart 14812 delta t gather 9793412
 delta t build 155583 delta t repart 11718 delta t gather 9793401
 delta t build 156705 delta t repart 11564 delta t gather 9793436
 delta t build 153579 delta t repart 14814 delta t gather 9793422
 delta t build 152689 delta t repart 11656 delta t gather 9793402
 delta t build 151210 delta t repart 11724 delta t gather 9793385
 delta t build 153146 delta t repart 14770 delta t gather 9793412
 delta t build 151119 delta t repart 14753 delta t gather 9793439
 delta t build 151090 delta t repart 14722 delta t gather 9793412
 delta t build 154934 delta t repart 11653 delta t gather 9793430
 delta t build 154238 delta t repart 11637 delta t gather 9793426
 delta t build 155338 delta t repart 11725 delta t gather 9793398
 delta t build 154945 delta t repart 11716 delta t gather 9793409
 delta t build 154529 delta t repart 14848 delta t gather 9793406
 delta t build 155381 delta t repart 11705 delta t gather 9793426
 delta t build 149547 delta t repart 11731 delta t gather 9793402
 delta t build 154158 delta t repart 11554 delta t gather 9793412
 delta t build 155153 delta t repart 11531 delta t gather 9793428
 delta t build 154054 delta t repart 14787 delta t gather 9793414
 delta t build 153809 delta t repart 11708 delta t gather 9793419
 delta t build 155420 delta t repart 14737 delta t gather 9793451
 delta t build 153954 delta t repart 11716 delta t gather 9800295
 delta t build 154311 delta t repart 14725 delta t gather 9800346
 delta t build 151908 delta t repart 11651 delta t gather 9800450
 delta t build 154069 delta t repart 14805 delta t gather 9800478
[OGL LOG][Proc: 0]p_matrix: call_update: 10439.5 [ms]
[OGL LOG][Proc: 0]p_rhs: call_update: 220.605 [ms]
[OGL LOG][Proc: 0]init_precond: 0.036 [ms]
[OGL LOG][StoppingCriterion.H:588] Creating stopping criterion with minIter 822 frequency 10
[OGL LOG][Proc: 0]generate_solver: 0.002 [ms]
[OGL LOG][Proc: 0]solve: 12604.8 [ms]
[OGL LOG][Proc: 0]copy_x_back: 139.368 [ms]
[OGL LOG][lduLduBase.H:303] 
Statistics:
	Time per iteration: 9399 [mu s]
	Time per residual norm calculation: 4582.000000 [mu s]
	Time per iteration and DOF: 0.146859 [ns]
	Retrieve results bandwith 0.918000 [GByte/s]
nonecudaGKOCG:  Solving for p, Initial residual = 0.092049, Final residual = 9.956e-05, No Iterations 1341
linear solve p 23592050
time step continuity errors : sum local = 1.79691e-10, global = -7.72509e-24, cumulative = -2.31013e-22
[OGL LOG][Proc: 0]global_index_init: 0.157 [ms]
[OGL LOG][Proc: 0]p_local_coeffs: call_update: 0 [ms]
[OGL LOG][Proc: 0]p_non_local_coeffs: call_update: 0 [ms]
[OGL LOG][Proc: 0]update_local_matrix_data: 149.215 [ms]
[OGL LOG][Proc: 0]update_non_local_matrix_data: 3.131 [ms]
 delta t build 49591 delta t repart 12234 delta t gather 9827912
 delta t build 50444 delta t repart 12207 delta t gather 9827975
 delta t build 155496 delta t repart 12206 delta t gather 9828075
 delta t build 153998 delta t repart 12160 delta t gather 9828119
 delta t build 154847 delta t repart 12251 delta t gather 9828148
 delta t build 152538 delta t repart 12244 delta t gather 9828173
 delta t build 152811 delta t repart 12135 delta t gather 9828187
 delta t build 156925 delta t repart 12165 delta t gather 9828201
 delta t build 156382 delta t repart 12240 delta t gather 9828207
 delta t build 156634 delta t repart 12234 delta t gather 9828226
 delta t build 156743 delta t repart 12224 delta t gather 9828239
 delta t build 156610 delta t repart 12228 delta t gather 9828233
 delta t build 158038 delta t repart 12246 delta t gather 9828232
 delta t build 151458 delta t repart 12251 delta t gather 9828221
 delta t build 156783 delta t repart 12231 delta t gather 9828269
 delta t build 157602 delta t repart 12279 delta t gather 9828259
 delta t build 158230 delta t repart 12229 delta t gather 9828273
 delta t build 153233 delta t repart 12239 delta t gather 9828255
 delta t build 156337 delta t repart 12239 delta t gather 9828247
 delta t build 156182 delta t repart 12172 delta t gather 9828286
 delta t build 156644 delta t repart 12182 delta t gather 9828276
 delta t build 156060 delta t repart 12198 delta t gather 9828260
 delta t build 154194 delta t repart 12240 delta t gather 9828245
 delta t build 154840 delta t repart 12247 delta t gather 9828287
 delta t build 156810 delta t repart 12271 delta t gather 9828278
 delta t build 155567 delta t repart 12245 delta t gather 9828256
 delta t build 154416 delta t repart 12143 delta t gather 9828267
 delta t build 158971 delta t repart 12254 delta t gather 9828283
 delta t build 153599 delta t repart 12231 delta t gather 9828262
 delta t build 155578 delta t repart 12225 delta t gather 9828271
 delta t build 153176 delta t repart 12252 delta t gather 9828293
 delta t build 156531 delta t repart 12258 delta t gather 9828277
 delta t build 157181 delta t repart 12225 delta t gather 9828263
 delta t build 156113 delta t repart 12114 delta t gather 9828277
 delta t build 157988 delta t repart 12252 delta t gather 9828283
 delta t build 156055 delta t repart 12281 delta t gather 9828307
 delta t build 157265 delta t repart 12296 delta t gather 9834917
 delta t build 157970 delta t repart 12233 delta t gather 9835194
 delta t build 155955 delta t repart 12246 delta t gather 9835193
 delta t build 134916 delta t repart 12255 delta t gather 9835204
[OGL LOG][Proc: 0]p_matrix: call_update: 10476 [ms]
[OGL LOG][Proc: 0]p_rhs: call_update: 222.267 [ms]
[OGL LOG][Proc: 0]init_precond: 0.031 [ms]
[OGL LOG][StoppingCriterion.H:588] Creating stopping criterion with minIter 804 frequency 10
[OGL LOG][Proc: 0]generate_solver: 0.001 [ms]
[OGL LOG][Proc: 0]solve: 12414.2 [ms]
[OGL LOG][Proc: 0]copy_x_back: 132.842 [ms]
[OGL LOG][lduLduBase.H:303] 
Statistics:
	Time per iteration: 9397 [mu s]
	Time per residual norm calculation: 4622.000000 [mu s]
	Time per iteration and DOF: 0.146828 [ns]
	Retrieve results bandwith 0.963000 [GByte/s]
nonecudaGKOCG:  Solving for p, Initial residual = 0.077281, Final residual = 9.96648e-05, No Iterations 1321
linear solve p 23459047
time step continuity errors : sum local = 1.79911e-10, global = 7.30132e-24, cumulative = -2.23711e-22
ExecutionTime = 580.98 s  ClockTime = 591 s

Time = 0.0002

Courant Number mean: 0.00334349 max: 0.094089
DILUPBiCGStab:  Solving for Ux, Initial residual = 0.0198986, Final residual = 3.0085e-05, No Iterations 5
DILUPBiCGStab:  Solving for Uy, Initial residual = 0.0346209, Final residual = 2.46884e-05, No Iterations 5
DILUPBiCGStab:  Solving for Uz, Initial residual = 0.0593943, Final residual = 7.80216e-05, No Iterations 5
linear solve U 5637500
[OGL LOG][Proc: 0]global_index_init: 0.032 [ms]
[OGL LOG][Proc: 0]p_local_coeffs: call_update: 0 [ms]
[OGL LOG][Proc: 0]p_non_local_coeffs: call_update: 0 [ms]
[OGL LOG][Proc: 0]update_local_matrix_data: 157.17 [ms]
[OGL LOG][Proc: 0]update_non_local_matrix_data: 2.325 [ms]
 delta t build 47736 delta t repart 11375 delta t gather 9813990
 delta t build 48577 delta t repart 11366 delta t gather 9814066
 delta t build 155241 delta t repart 11324 delta t gather 9814036
 delta t build 157578 delta t repart 11408 delta t gather 9814108
 delta t build 154659 delta t repart 15873 delta t gather 9814140
 delta t build 156136 delta t repart 15869 delta t gather 9814149
 delta t build 158112 delta t repart 11397 delta t gather 9814210
 delta t build 159431 delta t repart 11719 delta t gather 9814184
 delta t build 157510 delta t repart 11301 delta t gather 9814215
 delta t build 158149 delta t repart 11430 delta t gather 9814231
 delta t build 155525 delta t repart 11361 delta t gather 9814177
 delta t build 157982 delta t repart 11409 delta t gather 9814208
 delta t build 158011 delta t repart 11255 delta t gather 9814217
 delta t build 157460 delta t repart 11702 delta t gather 9814187
 delta t build 156667 delta t repart 11292 delta t gather 9814226
 delta t build 154448 delta t repart 11293 delta t gather 9814218
 delta t build 158708 delta t repart 11315 delta t gather 9814211
 delta t build 157225 delta t repart 15853 delta t gather 9814232
 delta t build 157437 delta t repart 11426 delta t gather 9814340
 delta t build 158828 delta t repart 11417 delta t gather 9814329
 delta t build 158716 delta t repart 11372 delta t gather 9814337
 delta t build 156885 delta t repart 11419 delta t gather 9814369
 delta t build 157880 delta t repart 11385 delta t gather 9814379
 delta t build 157041 delta t repart 11425 delta t gather 9814376
 delta t build 159703 delta t repart 11426 delta t gather 9814367
 delta t build 152139 delta t repart 11426 delta t gather 9814355
 delta t build 158899 delta t repart 11427 delta t gather 9814384
 delta t build 158111 delta t repart 11353 delta t gather 9814359
 delta t build 156810 delta t repart 11250 delta t gather 9814381
 delta t build 157309 delta t repart 11415 delta t gather 9814387
 delta t build 158457 delta t repart 11423 delta t gather 9814352
 delta t build 157175 delta t repart 11422 delta t gather 9814368
 delta t build 154221 delta t repart 15862 delta t gather 9814370
 delta t build 156874 delta t repart 11407 delta t gather 9814352
 delta t build 154217 delta t repart 11414 delta t gather 9814375
 delta t build 156373 delta t repart 11429 delta t gather 9814379
 delta t build 155332 delta t repart 11403 delta t gather 9821106
 delta t build 158181 delta t repart 11423 delta t gather 9821280
 delta t build 154781 delta t repart 11420 delta t gather 9821395
 delta t build 156297 delta t repart 15851 delta t gather 9821429
[OGL LOG][Proc: 0]p_matrix: call_update: 10465.5 [ms]
[OGL LOG][Proc: 0]p_rhs: call_update: 219.284 [ms]
[OGL LOG][Proc: 0]init_precond: 0.031 [ms]
[OGL LOG][StoppingCriterion.H:588] Creating stopping criterion with minIter 792 frequency 10
[OGL LOG][Proc: 0]generate_solver: 0.002 [ms]
[OGL LOG][Proc: 0]solve: 12432.2 [ms]
[OGL LOG][Proc: 0]copy_x_back: 138.251 [ms]
[OGL LOG][lduLduBase.H:303] 
Statistics:
	Time per iteration: 9411 [mu s]
	Time per residual norm calculation: 5485.000000 [mu s]
	Time per iteration and DOF: 0.147047 [ns]
	Retrieve results bandwith 0.925000 [GByte/s]
nonecudaGKOCG:  Solving for p, Initial residual = 0.0599911, Final residual = 9.68989e-05, No Iterations 1321
linear solve p 23453508
time step continuity errors : sum local = 1.79049e-10, global = 8.08068e-23, cumulative = -1.42905e-22
[OGL LOG][Proc: 0]global_index_init: 0.032 [ms]
[OGL LOG][Proc: 0]p_local_coeffs: call_update: 0 [ms]
[OGL LOG][Proc: 0]p_non_local_coeffs: call_update: 0 [ms]
[OGL LOG][Proc: 0]update_local_matrix_data: 153.592 [ms]
[OGL LOG][Proc: 0]update_non_local_matrix_data: 0.824 [ms]
 delta t build 155101 delta t repart 13621 delta t gather 9807297
 delta t build 154277 delta t repart 13634 delta t gather 9807284
 delta t build 50432 delta t repart 11389 delta t gather 9807293
 delta t build 156089 delta t repart 13551 delta t gather 9807278
 delta t build 51043 delta t repart 11389 delta t gather 9807297
 delta t build 155109 delta t repart 11302 delta t gather 9807373
 delta t build 154631 delta t repart 13628 delta t gather 9807315
 delta t build 153990 delta t repart 13633 delta t gather 9807369
 delta t build 152264 delta t repart 11363 delta t gather 9807330
 delta t build 156647 delta t repart 13638 delta t gather 9807361
 delta t build 155251 delta t repart 13631 delta t gather 9807352
 delta t build 156005 delta t repart 13674 delta t gather 9807361
 delta t build 155390 delta t repart 13661 delta t gather 9807410
 delta t build 155856 delta t repart 13627 delta t gather 9807415
 delta t build 154915 delta t repart 11345 delta t gather 9807393
 delta t build 155463 delta t repart 13644 delta t gather 9807402
 delta t build 157377 delta t repart 13557 delta t gather 9807393
 delta t build 155302 delta t repart 13545 delta t gather 9807394
 delta t build 154885 delta t repart 13644 delta t gather 9807396
 delta t build 154642 delta t repart 11268 delta t gather 9807385
 delta t build 153883 delta t repart 13638 delta t gather 9807506
 delta t build 154736 delta t repart 11390 delta t gather 9807495
 delta t build 156914 delta t repart 13632 delta t gather 9807525
 delta t build 157449 delta t repart 11395 delta t gather 9807534
 delta t build 155919 delta t repart 11395 delta t gather 9807506
 delta t build 155681 delta t repart 11390 delta t gather 9807519
 delta t build 155037 delta t repart 13638 delta t gather 9807546
 delta t build 153222 delta t repart 13638 delta t gather 9807516
 delta t build 155429 delta t repart 11392 delta t gather 9807515
 delta t build 154014 delta t repart 13631 delta t gather 9807540
 delta t build 154666 delta t repart 13626 delta t gather 9807530
 delta t build 152415 delta t repart 13621 delta t gather 9807518
 delta t build 154892 delta t repart 11391 delta t gather 9807539
 delta t build 154974 delta t repart 13627 delta t gather 9807555
 delta t build 154694 delta t repart 13634 delta t gather 9807553
 delta t build 153624 delta t repart 11273 delta t gather 9807551
 delta t build 157133 delta t repart 11389 delta t gather 9814539
 delta t build 150920 delta t repart 13639 delta t gather 9814614
 delta t build 129560 delta t repart 13628 delta t gather 9814625
 delta t build 155129 delta t repart 11326 delta t gather 9814669
[OGL LOG][Proc: 0]p_matrix: call_update: 10456.3 [ms]
[OGL LOG][Proc: 0]p_rhs: call_update: 221.444 [ms]
[OGL LOG][Proc: 0]init_precond: 0.03 [ms]
[OGL LOG][StoppingCriterion.H:588] Creating stopping criterion with minIter 792 frequency 10
[OGL LOG][Proc: 0]generate_solver: 0.002 [ms]
[OGL LOG][Proc: 0]solve: 12226.8 [ms]
[OGL LOG][Proc: 0]copy_x_back: 155.562 [ms]
[OGL LOG][lduLduBase.H:303] 
Statistics:
	Time per iteration: 9397 [mu s]
	Time per residual norm calculation: 3557.000000 [mu s]
	Time per iteration and DOF: 0.146828 [ns]
	Retrieve results bandwith 0.822000 [GByte/s]
nonecudaGKOCG:  Solving for p, Initial residual = 0.0517077, Final residual = 9.68429e-05, No Iterations 1301
linear solve p 23245207
time step continuity errors : sum local = 1.74792e-10, global = -2.04646e-23, cumulative = -1.63369e-22
ExecutionTime = 637.75 s  ClockTime = 648 s

Time = 0.000225

Courant Number mean: 0.00355782 max: 0.0944927
DILUPBiCGStab:  Solving for Ux, Initial residual = 0.0176161, Final residual = 2.35922e-05, No Iterations 5
DILUPBiCGStab:  Solving for Uy, Initial residual = 0.0300979, Final residual = 2.23897e-05, No Iterations 5
DILUPBiCGStab:  Solving for Uz, Initial residual = 0.0527891, Final residual = 5.95781e-05, No Iterations 5
linear solve U 5603140
[OGL LOG][Proc: 0]global_index_init: 0.037 [ms]
[OGL LOG][Proc: 0]p_local_coeffs: call_update: 0 [ms]
[OGL LOG][Proc: 0]p_non_local_coeffs: call_update: 0 [ms]
[OGL LOG][Proc: 0]update_local_matrix_data: 159.375 [ms]
[OGL LOG][Proc: 0]update_non_local_matrix_data: 0.685 [ms]
 delta t build 158513 delta t repart 14027 delta t gather 9832176
 delta t build 158259 delta t repart 14016 delta t gather 9832200
 delta t build 157235 delta t repart 13978 delta t gather 9832190
 delta t build 151403 delta t repart 12129 delta t gather 9832176
 delta t build 157925 delta t repart 14026 delta t gather 9832245
 delta t build 157339 delta t repart 13998 delta t gather 9832235
 delta t build 156732 delta t repart 14014 delta t gather 9832239
 delta t build 159538 delta t repart 13987 delta t gather 9832231
 delta t build 158541 delta t repart 13986 delta t gather 9832241
 delta t build 151972 delta t repart 12161 delta t gather 9832228
 delta t build 153369 delta t repart 12193 delta t gather 9832228
 delta t build 158224 delta t repart 13953 delta t gather 9832235
 delta t build 158581 delta t repart 14045 delta t gather 9832229
 delta t build 156489 delta t repart 14014 delta t gather 9832214
 delta t build 158508 delta t repart 14015 delta t gather 9832224
 delta t build 158870 delta t repart 13957 delta t gather 9832215
 delta t build 157076 delta t repart 12116 delta t gather 9832218
 delta t build 154438 delta t repart 14008 delta t gather 9832240
 delta t build 48816 delta t repart 12225 delta t gather 9845367
 delta t build 48064 delta t repart 12221 delta t gather 9845371
 delta t build 157200 delta t repart 14027 delta t gather 9845478
 delta t build 158652 delta t repart 14015 delta t gather 9845488
 delta t build 155986 delta t repart 12185 delta t gather 9845465
 delta t build 158724 delta t repart 14013 delta t gather 9845488
 delta t build 157245 delta t repart 14041 delta t gather 9845507
 delta t build 157637 delta t repart 13996 delta t gather 9845538
 delta t build 160048 delta t repart 12224 delta t gather 9845545
 delta t build 156726 delta t repart 14039 delta t gather 9845552
 delta t build 157960 delta t repart 12232 delta t gather 9845518
 delta t build 157285 delta t repart 14020 delta t gather 9845549
 delta t build 158179 delta t repart 14050 delta t gather 9845533
 delta t build 156809 delta t repart 13983 delta t gather 9845567
 delta t build 157447 delta t repart 13989 delta t gather 9845564
 delta t build 154283 delta t repart 13937 delta t gather 9845576
 delta t build 158449 delta t repart 14019 delta t gather 9845556
 delta t build 157909 delta t repart 12236 delta t gather 9845559
 delta t build 157594 delta t repart 14032 delta t gather 9858028
 delta t build 158338 delta t repart 14030 delta t gather 9858137
 delta t build 157047 delta t repart 14031 delta t gather 9858628
 delta t build 159920 delta t repart 14028 delta t gather 9858721
[OGL LOG][Proc: 0]p_matrix: call_update: 10493.6 [ms]
[OGL LOG][Proc: 0]p_rhs: call_update: 222.213 [ms]
[OGL LOG][Proc: 0]init_precond: 0.03 [ms]
[OGL LOG][StoppingCriterion.H:588] Creating stopping criterion with minIter 780 frequency 10
[OGL LOG][Proc: 0]generate_solver: 0.001 [ms]
[OGL LOG][Proc: 0]solve: 12822.2 [ms]
[OGL LOG][Proc: 0]copy_x_back: 129.308 [ms]
[OGL LOG][lduLduBase.H:303] 
Statistics:
	Time per iteration: 9421 [mu s]
	Time per residual norm calculation: 5038.000000 [mu s]
	Time per iteration and DOF: 0.147203 [ns]
	Retrieve results bandwith 0.989000 [GByte/s]
nonecudaGKOCG:  Solving for p, Initial residual = 0.044621, Final residual = 9.72824e-05, No Iterations 1361
linear solve p 23886292
time step continuity errors : sum local = 1.7324e-10, global = -8.88507e-23, cumulative = -2.5222e-22
[OGL LOG][Proc: 0]global_index_init: 0.159 [ms]
[OGL LOG][Proc: 0]p_local_coeffs: call_update: 0 [ms]
[OGL LOG][Proc: 0]p_non_local_coeffs: call_update: 0 [ms]
[OGL LOG][Proc: 0]update_local_matrix_data: 149.536 [ms]
[OGL LOG][Proc: 0]update_non_local_matrix_data: 6.069 [ms]
 delta t build 49244 delta t repart 11802 delta t gather 9801162
 delta t build 50401 delta t repart 11910 delta t gather 9801226
 delta t build 150621 delta t repart 11850 delta t gather 9801326
 delta t build 150731 delta t repart 11975 delta t gather 9801418
 delta t build 151124 delta t repart 11929 delta t gather 9801408
 delta t build 149076 delta t repart 11930 delta t gather 9801425
 delta t build 151642 delta t repart 11882 delta t gather 9801437
 delta t build 151251 delta t repart 11951 delta t gather 9801454
 delta t build 150980 delta t repart 11832 delta t gather 9801456
 delta t build 152226 delta t repart 11822 delta t gather 9801459
 delta t build 150829 delta t repart 11775 delta t gather 9801462
 delta t build 152977 delta t repart 11939 delta t gather 9801474
 delta t build 150206 delta t repart 11933 delta t gather 9801482
 delta t build 152945 delta t repart 11972 delta t gather 9801487
 delta t build 150548 delta t repart 11857 delta t gather 9801525
 delta t build 151307 delta t repart 11953 delta t gather 9801529
 delta t build 150073 delta t repart 11885 delta t gather 9801540
 delta t build 151365 delta t repart 11930 delta t gather 9801500
 delta t build 151483 delta t repart 11906 delta t gather 9801495
 delta t build 150046 delta t repart 11943 delta t gather 9801536
 delta t build 151835 delta t repart 11845 delta t gather 9801540
 delta t build 152185 delta t repart 11871 delta t gather 9801498
 delta t build 150985 delta t repart 11939 delta t gather 9801556
 delta t build 152788 delta t repart 11943 delta t gather 9801528
 delta t build 150749 delta t repart 11949 delta t gather 9801548
 delta t build 150304 delta t repart 11866 delta t gather 9801542
 delta t build 152170 delta t repart 11771 delta t gather 9801547
 delta t build 151682 delta t repart 11852 delta t gather 9801539
 delta t build 150549 delta t repart 11904 delta t gather 9801531
 delta t build 152120 delta t repart 11944 delta t gather 9801526
 delta t build 151950 delta t repart 11860 delta t gather 9801505
 delta t build 150303 delta t repart 11956 delta t gather 9801523
 delta t build 151595 delta t repart 11961 delta t gather 9801545
 delta t build 152249 delta t repart 11856 delta t gather 9801548
 delta t build 151488 delta t repart 11817 delta t gather 9801556
 delta t build 149914 delta t repart 11874 delta t gather 9801544
 delta t build 148902 delta t repart 11950 delta t gather 9808295
 delta t build 152735 delta t repart 11962 delta t gather 9808529
 delta t build 132046 delta t repart 11943 delta t gather 9808537
 delta t build 151110 delta t repart 11941 delta t gather 9808589
[OGL LOG][Proc: 0]p_matrix: call_update: 10441.8 [ms]
[OGL LOG][Proc: 0]p_rhs: call_update: 221.999 [ms]
[OGL LOG][Proc: 0]init_precond: 0.03 [ms]
[OGL LOG][StoppingCriterion.H:588] Creating stopping criterion with minIter 816 frequency 10
[OGL LOG][Proc: 0]generate_solver: 0.002 [ms]
[OGL LOG][Proc: 0]solve: 12701.3 [ms]
[OGL LOG][Proc: 0]copy_x_back: 134.575 [ms]
[OGL LOG][lduLduBase.H:303] 
Statistics:
	Time per iteration: 9401 [mu s]
	Time per residual norm calculation: 3599.000000 [mu s]
	Time per iteration and DOF: 0.146891 [ns]
	Retrieve results bandwith 0.950000 [GByte/s]
nonecudaGKOCG:  Solving for p, Initial residual = 0.0388158, Final residual = 9.68639e-05, No Iterations 1351
linear solve p 23717712
time step continuity errors : sum local = 1.70826e-10, global = 6.72141e-24, cumulative = -2.45499e-22
ExecutionTime = 695.36 s  ClockTime = 705 s

Time = 0.00025

Courant Number mean: 0.00375591 max: 0.0948204
DILUPBiCGStab:  Solving for Ux, Initial residual = 0.0158261, Final residual = 1.90364e-05, No Iterations 5
DILUPBiCGStab:  Solving for Uy, Initial residual = 0.0265923, Final residual = 1.84424e-05, No Iterations 5
DILUPBiCGStab:  Solving for Uz, Initial residual = 0.0480991, Final residual = 4.60648e-05, No Iterations 5
linear solve U 5620714
[OGL LOG][Proc: 0]global_index_init: 0.029 [ms]
[OGL LOG][Proc: 0]p_local_coeffs: call_update: 0 [ms]
[OGL LOG][Proc: 0]p_non_local_coeffs: call_update: 0 [ms]
[OGL LOG][Proc: 0]update_local_matrix_data: 156.53 [ms]
[OGL LOG][Proc: 0]update_non_local_matrix_data: 2.012 [ms]
 delta t build 153997 delta t repart 12077 delta t gather 9860069
 delta t build 154615 delta t repart 12029 delta t gather 9860166
 delta t build 156368 delta t repart 27053 delta t gather 9860167
 delta t build 154370 delta t repart 12164 delta t gather 9860167
 delta t build 156822 delta t repart 12082 delta t gather 9860163
 delta t build 149025 delta t repart 12048 delta t gather 9860146
 delta t build 152772 delta t repart 27237 delta t gather 9860200
 delta t build 155827 delta t repart 12084 delta t gather 9860202
 delta t build 156560 delta t repart 12117 delta t gather 9860230
 delta t build 154151 delta t repart 12118 delta t gather 9860215
 delta t build 155436 delta t repart 12161 delta t gather 9860229
 delta t build 156131 delta t repart 11937 delta t gather 9860206
 delta t build 151464 delta t repart 12126 delta t gather 9860223
 delta t build 154883 delta t repart 11962 delta t gather 9860226
 delta t build 156197 delta t repart 12175 delta t gather 9860211
 delta t build 155024 delta t repart 12170 delta t gather 9860230
 delta t build 156174 delta t repart 12065 delta t gather 9860234
 delta t build 156067 delta t repart 27223 delta t gather 9860201
 delta t build 48770 delta t repart 12064 delta t gather 9890615
 delta t build 49709 delta t repart 12060 delta t gather 9890656
 delta t build 154659 delta t repart 12079 delta t gather 9890696
 delta t build 154241 delta t repart 12075 delta t gather 9890724
 delta t build 156798 delta t repart 12059 delta t gather 9890744
 delta t build 156726 delta t repart 12077 delta t gather 9890760
 delta t build 157185 delta t repart 12068 delta t gather 9890781
 delta t build 155571 delta t repart 12075 delta t gather 9890768
 delta t build 153223 delta t repart 12073 delta t gather 9890781
 delta t build 156245 delta t repart 12066 delta t gather 9890803
 delta t build 155807 delta t repart 12073 delta t gather 9890767
 delta t build 155106 delta t repart 12064 delta t gather 9890805
 delta t build 155105 delta t repart 12091 delta t gather 9890784
 delta t build 151646 delta t repart 12072 delta t gather 9890785
 delta t build 155268 delta t repart 12060 delta t gather 9890787
 delta t build 155876 delta t repart 12081 delta t gather 9890794
 delta t build 154740 delta t repart 12061 delta t gather 9890789
 delta t build 154874 delta t repart 12064 delta t gather 9890804
 delta t build 154310 delta t repart 11926 delta t gather 9897632
 delta t build 151243 delta t repart 12012 delta t gather 9897839
 delta t build 156483 delta t repart 12076 delta t gather 9897880
 delta t build 157794 delta t repart 27199 delta t gather 9898063
[OGL LOG][Proc: 0]p_matrix: call_update: 10544.4 [ms]
[OGL LOG][Proc: 0]p_rhs: call_update: 221.661 [ms]
[OGL LOG][Proc: 0]init_precond: 0.033 [ms]
[OGL LOG][StoppingCriterion.H:588] Creating stopping criterion with minIter 810 frequency 10
[OGL LOG][Proc: 0]generate_solver: 0.001 [ms]
[OGL LOG][Proc: 0]solve: 12803.1 [ms]
[OGL LOG][Proc: 0]copy_x_back: 141.361 [ms]
[OGL LOG][lduLduBase.H:303] 
Statistics:
	Time per iteration: 9407 [mu s]
	Time per residual norm calculation: 4575.000000 [mu s]
	Time per iteration and DOF: 0.146984 [ns]
	Retrieve results bandwith 0.905000 [GByte/s]
nonecudaGKOCG:  Solving for p, Initial residual = 0.0328738, Final residual = 9.63505e-05, No Iterations 1361
linear solve p 23898541
time step continuity errors : sum local = 1.76886e-10, global = -3.54615e-23, cumulative = -2.8096e-22
[OGL LOG][Proc: 0]global_index_init: 0.031 [ms]
[OGL LOG][Proc: 0]p_local_coeffs: call_update: 0 [ms]
[OGL LOG][Proc: 0]p_non_local_coeffs: call_update: 0 [ms]
[OGL LOG][Proc: 0]update_local_matrix_data: 154.834 [ms]
[OGL LOG][Proc: 0]update_non_local_matrix_data: 1.05 [ms]
 delta t build 50619 delta t repart 11708 delta t gather 9803188
 delta t build 51450 delta t repart 11715 delta t gather 9803199
 delta t build 153818 delta t repart 13794 delta t gather 9803377
 delta t build 155360 delta t repart 13775 delta t gather 9803387
 delta t build 153183 delta t repart 13826 delta t gather 9803375
 delta t build 153685 delta t repart 13890 delta t gather 9803352
 delta t build 155168 delta t repart 13822 delta t gather 9803405
 delta t build 154171 delta t repart 11695 delta t gather 9803392
 delta t build 155063 delta t repart 13882 delta t gather 9803412
 delta t build 157190 delta t repart 13779 delta t gather 9803406
 delta t build 154432 delta t repart 13736 delta t gather 9803410
 delta t build 154653 delta t repart 11715 delta t gather 9803456
 delta t build 155409 delta t repart 13894 delta t gather 9803455
 delta t build 154439 delta t repart 13873 delta t gather 9803473
[...]
[OGL LOG][Proc: 0]p_local_coeffs: call_update: 0 [ms]
[OGL LOG][Proc: 0]p_non_local_coeffs: call_update: 0 [ms]
[OGL LOG][Proc: 0]update_local_matrix_data: 2.169 [ms]
[OGL LOG][Proc: 0]update_non_local_matrix_data: 0.116 [ms]
 delta t build 1495 delta t repart 1058 delta t gather 111680
 delta t build 1506 delta t repart 1065 delta t gather 111683
 delta t build 1495 delta t repart 1118 delta t gather 111683
 delta t build 1510 delta t repart 1068 delta t gather 111685
 delta t build 1441 delta t repart 1113 delta t gather 111730
 delta t build 1467 delta t repart 1085 delta t gather 111757
 delta t build 1462 delta t repart 1085 delta t gather 111759
 delta t build 1529 delta t repart 1085 delta t gather 111758
 delta t build 1522 delta t repart 1091 delta t gather 111754
 delta t build 1508 delta t repart 339 delta t gather 111776
 delta t build 1513 delta t repart 327 delta t gather 111776
 delta t build 1494 delta t repart 339 delta t gather 111775
 delta t build 1482 delta t repart 338 delta t gather 111777
 delta t build 1463 delta t repart 1089 delta t gather 111770
 delta t build 1568 delta t repart 320 delta t gather 111776
 delta t build 1535 delta t repart 1084 delta t gather 111776
 delta t build 1540 delta t repart 342 delta t gather 111775
 delta t build 1486 delta t repart 346 delta t gather 111805
 delta t build 1504 delta t repart 1083 delta t gather 111802
 delta t build 1564 delta t repart 1088 delta t gather 111808
[OGL LOG][Proc: 0]p_matrix: call_update: 127.175 [ms]
[OGL LOG][Proc: 0]p_rhs: call_update: 3.522 [ms]
[OGL LOG][Proc: 0]init_precond: 0.032 [ms]
[OGL LOG][StoppingCriterion.H:588] Creating stopping criterion with minIter 162 frequency 10
[OGL LOG][Proc: 0]generate_solver: 0.001 [ms]
[OGL LOG][Proc: 0]solve: 894.486 [ms]
[OGL LOG][Proc: 0]copy_x_back: 1.928 [ms]
[OGL LOG][lduLduBase.H:303] 
Statistics:
	Time per iteration: 3300 [mu s]
	Time per residual norm calculation: 1960.000000 [mu s]
	Time per iteration and DOF: 3.300000 [ns]
	Retrieve results bandwith 1.037000 [GByte/s]
nonecudaGKOCG:  Solving for p, Initial residual = 0.00547961, Final residual = 9.37422e-05, No Iterations 271
linear solve p 1031219
time step continuity errors : sum local = 2.5208e-09, global = -2.34185e-22, cumulative = -4.37314e-21
[OGL LOG][Proc: 0]global_index_init: 0.009 [ms]
[OGL LOG][Proc: 0]p_local_coeffs: call_update: 0 [ms]
[OGL LOG][Proc: 0]p_non_local_coeffs: call_update: 0 [ms]
[OGL LOG][Proc: 0]update_local_matrix_data: 2.177 [ms]
[OGL LOG][Proc: 0]update_non_local_matrix_data: 0.098 [ms]
 delta t build 1563 delta t repart 343 delta t gather 109813
 delta t build 1516 delta t repart 324 delta t gather 109829
 delta t build 1539 delta t repart 318 delta t gather 109821
 delta t build 1521 delta t repart 334 delta t gather 109822
 delta t build 1548 delta t repart 335 delta t gather 109822
 delta t build 1535 delta t repart 335 delta t gather 109821
 delta t build 1443 delta t repart 337 delta t gather 109821
 delta t build 1465 delta t repart 323 delta t gather 109827
 delta t build 1505 delta t repart 319 delta t gather 109815
 delta t build 1523 delta t repart 326 delta t gather 109826
 delta t build 1512 delta t repart 314 delta t gather 109822
 delta t build 1517 delta t repart 519 delta t gather 109816
 delta t build 1519 delta t repart 342 delta t gather 109813
 delta t build 1555 delta t repart 332 delta t gather 109824
 delta t build 1498 delta t repart 335 delta t gather 109822
 delta t build 1555 delta t repart 333 delta t gather 109826
 delta t build 1522 delta t repart 339 delta t gather 109862
 delta t build 1502 delta t repart 514 delta t gather 109863
 delta t build 1506 delta t repart 325 delta t gather 109861
 delta t build 1477 delta t repart 333 delta t gather 109866
[OGL LOG][Proc: 0]p_matrix: call_update: 124.166 [ms]
[OGL LOG][Proc: 0]p_rhs: call_update: 3.482 [ms]
[OGL LOG][Proc: 0]init_precond: 0.027 [ms]
[OGL LOG][StoppingCriterion.H:588] Creating stopping criterion with minIter 162 frequency 10
[OGL LOG][Proc: 0]generate_solver: 0.001 [ms]
[OGL LOG][Proc: 0]solve: 894.56 [ms]
[OGL LOG][Proc: 0]copy_x_back: 1.928 [ms]
[OGL LOG][lduLduBase.H:303] 
Statistics:
	Time per iteration: 3300 [mu s]
	Time per residual norm calculation: 1969.000000 [mu s]
	Time per iteration and DOF: 3.300000 [ns]
	Retrieve results bandwith 1.037000 [GByte/s]
nonecudaGKOCG:  Solving for p, Initial residual = 0.00453465, Final residual = 6.33352e-05, No Iterations 271
linear solve p 1028252
time step continuity errors : sum local = 1.75209e-09, global = -4.07014e-22, cumulative = -4.78016e-21
ExecutionTime = 59.26 s  ClockTime = 63 s

Time = 0.0018

Courant Number mean: 0.00857955 max: 0.0918496
DILUPBiCGStab:  Solving for Ux, Initial residual = 0.00931087, Final residual = 5.96098e-08, No Iterations 5
DILUPBiCGStab:  Solving for Uy, Initial residual = 0.0126547, Final residual = 4.83217e-08, No Iterations 5
DILUPBiCGStab:  Solving for Uz, Initial residual = 0.0247727, Final residual = 6.79718e-08, No Iterations 5
linear solve U 75159
[OGL LOG][Proc: 0]global_index_init: 0.017 [ms]
[OGL LOG][Proc: 0]p_local_coeffs: call_update: 0 [ms]
[OGL LOG][Proc: 0]p_non_local_coeffs: call_update: 0 [ms]
[OGL LOG][Proc: 0]update_local_matrix_data: 2.2 [ms]
[OGL LOG][Proc: 0]update_non_local_matrix_data: 0.141 [ms]
 delta t build 1490 delta t repart 337 delta t gather 112163
 delta t build 1505 delta t repart 341 delta t gather 112159
 delta t build 1502 delta t repart 334 delta t gather 112166
 delta t build 1503 delta t repart 316 delta t gather 112161
 delta t build 1494 delta t repart 337 delta t gather 112162
 delta t build 1528 delta t repart 341 delta t gather 112158
 delta t build 1514 delta t repart 341 delta t gather 112159
 delta t build 1457 delta t repart 338 delta t gather 112162
 delta t build 1433 delta t repart 327 delta t gather 112162
 delta t build 1482 delta t repart 328 delta t gather 112157
 delta t build 1482 delta t repart 333 delta t gather 112165
 delta t build 1477 delta t repart 341 delta t gather 112161
 delta t build 1451 delta t repart 319 delta t gather 112161
 delta t build 1458 delta t repart 342 delta t gather 112158
 delta t build 1522 delta t repart 334 delta t gather 112162
 delta t build 1557 delta t repart 340 delta t gather 112163
 delta t build 1467 delta t repart 366 delta t gather 112207
 delta t build 1521 delta t repart 341 delta t gather 112209
 delta t build 1470 delta t repart 338 delta t gather 112209
 delta t build 1469 delta t repart 326 delta t gather 112205
[OGL LOG][Proc: 0]p_matrix: call_update: 126.739 [ms]
[OGL LOG][Proc: 0]p_rhs: call_update: 3.532 [ms]
[OGL LOG][Proc: 0]init_precond: 0.028 [ms]
[OGL LOG][StoppingCriterion.H:588] Creating stopping criterion with minIter 162 frequency 10
[OGL LOG][Proc: 0]generate_solver: 0.001 [ms]
[OGL LOG][Proc: 0]solve: 894.583 [ms]
[OGL LOG][Proc: 0]copy_x_back: 2.065 [ms]
[OGL LOG][lduLduBase.H:303] 
Statistics:
	Time per iteration: 3301 [mu s]
	Time per residual norm calculation: 2255.000000 [mu s]
	Time per iteration and DOF: 3.301000 [ns]
	Retrieve results bandwith 0.968000 [GByte/s]
nonecudaGKOCG:  Solving for p, Initial residual = 0.00504863, Final residual = 8.73067e-05, No Iterations 271
linear solve p 1031074
time step continuity errors : sum local = 2.36938e-09, global = 1.87449e-22, cumulative = -4.59271e-21
[OGL LOG][Proc: 0]global_index_init: 0.009 [ms]
[OGL LOG][Proc: 0]p_local_coeffs: call_update: 0 [ms]
[OGL LOG][Proc: 0]p_non_local_coeffs: call_update: 0 [ms]
[OGL LOG][Proc: 0]update_local_matrix_data: 2.175 [ms]
[OGL LOG][Proc: 0]update_non_local_matrix_data: 0.173 [ms]
 delta t build 1528 delta t repart 330 delta t gather 109769
 delta t build 1489 delta t repart 321 delta t gather 109768
 delta t build 1470 delta t repart 319 delta t gather 109769
 delta t build 1441 delta t repart 312 delta t gather 109767
 delta t build 1488 delta t repart 327 delta t gather 109825
 delta t build 2187 delta t repart 308 delta t gather 109813
 delta t build 1465 delta t repart 313 delta t gather 109824
 delta t build 1416 delta t repart 309 delta t gather 109823
 delta t build 1441 delta t repart 312 delta t gather 109824
 delta t build 1469 delta t repart 328 delta t gather 109841
 delta t build 1488 delta t repart 321 delta t gather 109857
 delta t build 1535 delta t repart 324 delta t gather 109845
 delta t build 1495 delta t repart 314 delta t gather 109846
 delta t build 1409 delta t repart 318 delta t gather 109840
 delta t build 1513 delta t repart 320 delta t gather 109848
 delta t build 1452 delta t repart 316 delta t gather 109845
 delta t build 1573 delta t repart 310 delta t gather 109846
 delta t build 1458 delta t repart 310 delta t gather 109892
 delta t build 1463 delta t repart 311 delta t gather 109885
 delta t build 1465 delta t repart 312 delta t gather 109891
[OGL LOG][Proc: 0]p_matrix: call_update: 124.558 [ms]
[OGL LOG][Proc: 0]p_rhs: call_update: 3.428 [ms]
[OGL LOG][Proc: 0]init_precond: 0.026 [ms]
[OGL LOG][StoppingCriterion.H:588] Creating stopping criterion with minIter 162 frequency 10
[OGL LOG][Proc: 0]generate_solver: 0.001 [ms]
[OGL LOG][Proc: 0]solve: 860.239 [ms]
[OGL LOG][Proc: 0]copy_x_back: 1.982 [ms]
[OGL LOG][lduLduBase.H:303] 
Statistics:
	Time per iteration: 3295 [mu s]
	Time per residual norm calculation: 2263.000000 [mu s]
	Time per iteration and DOF: 3.295000 [ns]
	Retrieve results bandwith 1.009000 [GByte/s]
nonecudaGKOCG:  Solving for p, Initial residual = 0.00418421, Final residual = 9.26872e-05, No Iterations 261
linear solve p 994411
time step continuity errors : sum local = 2.48609e-09, global = 5.8856e-22, cumulative = -4.00415e-21
ExecutionTime = 61.42 s  ClockTime = 65 s

Time = 0.0019

Courant Number mean: 0.00876812 max: 0.0920539
DILUPBiCGStab:  Solving for Ux, Initial residual = 0.00875809, Final residual = 5.51224e-08, No Iterations 5
DILUPBiCGStab:  Solving for Uy, Initial residual = 0.0118905, Final residual = 4.56626e-08, No Iterations 5
DILUPBiCGStab:  Solving for Uz, Initial residual = 0.0233615, Final residual = 6.40397e-08, No Iterations 5
linear solve U 74845
[OGL LOG][Proc: 0]global_index_init: 0.008 [ms]
[OGL LOG][Proc: 0]p_local_coeffs: call_update: 0 [ms]
[OGL LOG][Proc: 0]p_non_local_coeffs: call_update: 0 [ms]
[OGL LOG][Proc: 0]update_local_matrix_data: 2.193 [ms]
[OGL LOG][Proc: 0]update_non_local_matrix_data: 0.111 [ms]
 delta t build 1127 delta t repart 340 delta t gather 111686
 delta t build 1373 delta t repart 334 delta t gather 111687
 delta t build 1368 delta t repart 347 delta t gather 111684
 delta t build 1294 delta t repart 393 delta t gather 111682
 delta t build 1302 delta t repart 341 delta t gather 111687
 delta t build 1091 delta t repart 341 delta t gather 111687
 delta t build 2254 delta t repart 339 delta t gather 111690
 delta t build 1368 delta t repart 338 delta t gather 111689
 delta t build 1262 delta t repart 343 delta t gather 111685
 delta t build 1329 delta t repart 334 delta t gather 111691
 delta t build 2398 delta t repart 416 delta t gather 111679
 delta t build 1280 delta t repart 338 delta t gather 111689
 delta t build 1170 delta t repart 326 delta t gather 111682
 delta t build 1339 delta t repart 325 delta t gather 111679
 delta t build 1295 delta t repart 337 delta t gather 111691
 delta t build 1308 delta t repart 340 delta t gather 111689
 delta t build 1305 delta t repart 393 delta t gather 111721
 delta t build 1872 delta t repart 343 delta t gather 111725
 delta t build 1293 delta t repart 338 delta t gather 111719
 delta t build 1382 delta t repart 341 delta t gather 111726
[OGL LOG][Proc: 0]p_matrix: call_update: 127.392 [ms]
[OGL LOG][Proc: 0]p_rhs: call_update: 3.302 [ms]
[OGL LOG][Proc: 0]init_precond: 0.03 [ms]
[OGL LOG][StoppingCriterion.H:588] Creating stopping criterion with minIter 156 frequency 10
[OGL LOG][Proc: 0]generate_solver: 0.001 [ms]
[OGL LOG][Proc: 0]solve: 896.845 [ms]
[OGL LOG][Proc: 0]copy_x_back: 1.929 [ms]
[OGL LOG][lduLduBase.H:303] 
Statistics:
	Time per iteration: 3309 [mu s]
	Time per residual norm calculation: 1966.000000 [mu s]
	Time per iteration and DOF: 3.309000 [ns]
	Retrieve results bandwith 1.036000 [GByte/s]
nonecudaGKOCG:  Solving for p, Initial residual = 0.00469299, Final residual = 7.85277e-05, No Iterations 271
linear solve p 1033619
time step continuity errors : sum local = 2.15908e-09, global = 1.38604e-22, cumulative = -3.86554e-21
[OGL LOG][Proc: 0]global_index_init: 0.008 [ms]
[OGL LOG][Proc: 0]p_local_coeffs: call_update: 0 [ms]
[OGL LOG][Proc: 0]p_non_local_coeffs: call_update: 0 [ms]
[OGL LOG][Proc: 0]update_local_matrix_data: 2.156 [ms]
[OGL LOG][Proc: 0]update_non_local_matrix_data: 0.094 [ms]
 delta t build 1287 delta t repart 426 delta t gather 111282
 delta t build 1066 delta t repart 430 delta t gather 111285
 delta t build 1993 delta t repart 430 delta t gather 111282
 delta t build 1040 delta t repart 425 delta t gather 111285
 delta t build 1277 delta t repart 421 delta t gather 111339
 delta t build 1179 delta t repart 356 delta t gather 111368
 delta t build 1275 delta t repart 380 delta t gather 111369
 delta t build 1269 delta t repart 379 delta t gather 111369
 delta t build 1048 delta t repart 362 delta t gather 111364
 delta t build 1132 delta t repart 371 delta t gather 111403
 delta t build 2213 delta t repart 370 delta t gather 111404
 delta t build 2029 delta t repart 374 delta t gather 111400
 delta t build 1253 delta t repart 351 delta t gather 111404
 delta t build 1177 delta t repart 357 delta t gather 111394
 delta t build 1064 delta t repart 375 delta t gather 111398
 delta t build 1214 delta t repart 338 delta t gather 111402
 delta t build 1251 delta t repart 351 delta t gather 111403
 delta t build 1296 delta t repart 412 delta t gather 111447
 delta t build 1222 delta t repart 371 delta t gather 111440
 delta t build 1221 delta t repart 339 delta t gather 111448
[OGL LOG][Proc: 0]p_matrix: call_update: 127.092 [ms]
[OGL LOG][Proc: 0]p_rhs: call_update: 3.277 [ms]
[OGL LOG][Proc: 0]init_precond: 0.033 [ms]
[OGL LOG][StoppingCriterion.H:588] Creating stopping criterion with minIter 162 frequency 10
[OGL LOG][Proc: 0]generate_solver: 0.001 [ms]
[OGL LOG][Proc: 0]solve: 860.721 [ms]
[OGL LOG][Proc: 0]copy_x_back: 1.976 [ms]
[OGL LOG][lduLduBase.H:303] 
Statistics:
	Time per iteration: 3297 [mu s]
	Time per residual norm calculation: 2537.000000 [mu s]
	Time per iteration and DOF: 3.297000 [ns]
	Retrieve results bandwith 1.012000 [GByte/s]
nonecudaGKOCG:  Solving for p, Initial residual = 0.00386563, Final residual = 8.73824e-05, No Iterations 261
linear solve p 997145
time step continuity errors : sum local = 2.36313e-09, global = 1.09569e-21, cumulative = -2.76985e-21
ExecutionTime = 63.57 s  ClockTime = 67 s

Time = 0.002

Courant Number mean: 0.00894848 max: 0.0922409
DILUPBiCGStab:  Solving for Ux, Initial residual = 0.00826092, Final residual = 5.12057e-08, No Iterations 5
DILUPBiCGStab:  Solving for Uy, Initial residual = 0.0112088, Final residual = 4.33101e-08, No Iterations 5
DILUPBiCGStab:  Solving for Uz, Initial residual = 0.0220955, Final residual = 6.043e-08, No Iterations 5
linear solve U 74992
[OGL LOG][Proc: 0]global_index_init: 0.008 [ms]
[OGL LOG][Proc: 0]p_local_coeffs: call_update: 0 [ms]
[OGL LOG][Proc: 0]p_non_local_coeffs: call_update: 0 [ms]
[OGL LOG][Proc: 0]update_local_matrix_data: 2.066 [ms]
[OGL LOG][Proc: 0]update_non_local_matrix_data: 0.091 [ms]
 delta t build 1232 delta t repart 379 delta t gather 111489
 delta t build 963 delta t repart 359 delta t gather 111490
 delta t build 1224 delta t repart 379 delta t gather 111490
 delta t build 1205 delta t repart 380 delta t gather 111489
 delta t build 2124 delta t repart 377 delta t gather 111518
 delta t build 1261 delta t repart 379 delta t gather 111516
 delta t build 1852 delta t repart 377 delta t gather 111521
 delta t build 1198 delta t repart 378 delta t gather 111520
 delta t build 971 delta t repart 358 delta t gather 111527
 delta t build 2213 delta t repart 374 delta t gather 111554
 delta t build 1210 delta t repart 327 delta t gather 111554
 delta t build 2426 delta t repart 336 delta t gather 111558
 delta t build 1172 delta t repart 375 delta t gather 111556
 delta t build 1220 delta t repart 339 delta t gather 111556
 delta t build 1239 delta t repart 339 delta t gather 111555
 delta t build 2051 delta t repart 327 delta t gather 111555
 delta t build 1442 delta t repart 340 delta t gather 111554
 delta t build 2014 delta t repart 338 delta t gather 111588
 delta t build 1259 delta t repart 376 delta t gather 111581
 delta t build 1200 delta t repart 376 delta t gather 111591
[OGL LOG][Proc: 0]p_matrix: call_update: 127.78 [ms]
[OGL LOG][Proc: 0]p_rhs: call_update: 3.41 [ms]
[OGL LOG][Proc: 0]init_precond: 0.026 [ms]
[OGL LOG][StoppingCriterion.H:588] Creating stopping criterion with minIter 156 frequency 10
[OGL LOG][Proc: 0]generate_solver: 0.001 [ms]
[OGL LOG][Proc: 0]solve: 896.445 [ms]
[OGL LOG][Proc: 0]copy_x_back: 1.902 [ms]
[OGL LOG][lduLduBase.H:303] 
Statistics:
	Time per iteration: 3307 [mu s]
	Time per residual norm calculation: 2251.000000 [mu s]
	Time per iteration and DOF: 3.307000 [ns]
	Retrieve results bandwith 1.051000 [GByte/s]
nonecudaGKOCG:  Solving for p, Initial residual = 0.00433326, Final residual = 7.54387e-05, No Iterations 271
linear solve p 1033506
time step continuity errors : sum local = 2.08848e-09, global = 9.69104e-22, cumulative = -1.80075e-21
[OGL LOG][Proc: 0]global_index_init: 0.022 [ms]
[OGL LOG][Proc: 0]p_local_coeffs: call_update: 0 [ms]
[OGL LOG][Proc: 0]p_non_local_coeffs: call_update: 0 [ms]
[OGL LOG][Proc: 0]update_local_matrix_data: 2.112 [ms]
[OGL LOG][Proc: 0]update_non_local_matrix_data: 0.825 [ms]
 delta t build 1119 delta t repart 343 delta t gather 109509
 delta t build 2253 delta t repart 340 delta t gather 109507
 delta t build 1980 delta t repart 334 delta t gather 109509
 delta t build 1024 delta t repart 344 delta t gather 109509
 delta t build 1009 delta t repart 334 delta t gather 109559
 delta t build 1051 delta t repart 341 delta t gather 109590
 delta t build 1063 delta t repart 331 delta t gather 109591
 delta t build 1064 delta t repart 329 delta t gather 109585
 delta t build 1005 delta t repart 330 delta t gather 109593
 delta t build 1148 delta t repart 330 delta t gather 109593
 delta t build 1090 delta t repart 321 delta t gather 109590
 delta t build 1082 delta t repart 334 delta t gather 109593
 delta t build 1137 delta t repart 344 delta t gather 109587
 delta t build 1896 delta t repart 327 delta t gather 109590
 delta t build 1127 delta t repart 337 delta t gather 109591
 delta t build 1972 delta t repart 337 delta t gather 109592
 delta t build 1022 delta t repart 331 delta t gather 109590
 delta t build 1013 delta t repart 328 delta t gather 109619
 delta t build 1076 delta t repart 326 delta t gather 109629
 delta t build 1535 delta t repart 324 delta t gather 109628
[OGL LOG][Proc: 0]p_matrix: call_update: 124.674 [ms]
[OGL LOG][Proc: 0]p_rhs: call_update: 3.317 [ms]
[OGL LOG][Proc: 0]init_precond: 0.025 [ms]
[OGL LOG][StoppingCriterion.H:588] Creating stopping criterion with minIter 162 frequency 10
[OGL LOG][Proc: 0]generate_solver: 0.001 [ms]
[OGL LOG][Proc: 0]solve: 860.426 [ms]
[OGL LOG][Proc: 0]copy_x_back: 2.375 [ms]
[OGL LOG][lduLduBase.H:303] 
Statistics:
	Time per iteration: 3296 [mu s]
	Time per residual norm calculation: 2256.000000 [mu s]
	Time per iteration and DOF: 3.296000 [ns]
	Retrieve results bandwith 0.842000 [GByte/s]
nonecudaGKOCG:  Solving for p, Initial residual = 0.00358691, Final residual = 8.25466e-05, No Iterations 261
linear solve p 995601
time step continuity errors : sum local = 2.25057e-09, global = 3.02996e-22, cumulative = -1.49775e-21
ExecutionTime = 65.74 s  ClockTime = 69 s

End

Finalising parallel run
================================================================================
