hash: 14cf9fad9bc207a37f19287f0d07115e
/*---------------------------------------------------------------------------*\
| =========                 |                                                 |
| \\      /  F ield         | OpenFOAM: The Open Source CFD Toolbox           |
|  \\    /   O peration     | Version:  2112                                  |
|   \\  /    A nd           | Website:  www.openfoam.com                      |
|    \\/     M anipulation  |                                                 |
\*---------------------------------------------------------------------------*/
Build  : d44c8318f0-20220111 OPENFOAM=2112 version=v2112
Arch   : "LSB;label=32;scalar=64"
Exec   : icoFoam -parallel
Date   : May 17 2022
Time   : 07:40:36
Host   : hkn0215.localdomain
PID    : 3030394
I/O    : uncollated
Case   : /hkfs/home/project/hk-project-test-fine/eq4036/data/code/ogl_labbook/lidDrivenCavity/scaling/Variation_mesh/500/Variation_matrix_solver/CG_NoPrecond_DefaultOF/Variation_mpiRank_of/4864/base
nProcs : 4864
Hosts  :
(
    (hkn0215.localdomain 76)
    (hkn0220.localdomain 76)
    (hkn0221.localdomain 76)
    (hkn0222.localdomain 76)
    (hkn0223.localdomain 76)
    (hkn0224.localdomain 76)
    (hkn0226.localdomain 76)
    (hkn0227.localdomain 76)
    (hkn0228.localdomain 76)
    (hkn0303.localdomain 76)
    (hkn0304.localdomain 76)
    (hkn0305.localdomain 76)
    (hkn0306.localdomain 76)
    (hkn0307.localdomain 76)
    (hkn0308.localdomain 76)
    (hkn0309.localdomain 76)
    (hkn0310.localdomain 76)
    (hkn1034.localdomain 76)
    (hkn1037.localdomain 76)
    (hkn1101.localdomain 76)
    (hkn1102.localdomain 76)
    (hkn1103.localdomain 76)
    (hkn1104.localdomain 76)
    (hkn1105.localdomain 76)
    (hkn1106.localdomain 76)
    (hkn1107.localdomain 76)
    (hkn1108.localdomain 76)
    (hkn1109.localdomain 76)
    (hkn1110.localdomain 76)
    (hkn1111.localdomain 76)
    (hkn1112.localdomain 76)
    (hkn1113.localdomain 76)
    (hkn1114.localdomain 76)
    (hkn1115.localdomain 76)
    (hkn1116.localdomain 76)
    (hkn1122.localdomain 76)
    (hkn1126.localdomain 76)
    (hkn1127.localdomain 76)
    (hkn1128.localdomain 76)
    (hkn1129.localdomain 76)
    (hkn1130.localdomain 76)
    (hkn1135.localdomain 76)
    (hkn1136.localdomain 76)
    (hkn1137.localdomain 76)
    (hkn1138.localdomain 76)
    (hkn1139.localdomain 76)
    (hkn1250.localdomain 76)
    (hkn1251.localdomain 76)
    (hkn1252.localdomain 76)
    (hkn1253.localdomain 76)
    (hkn1254.localdomain 76)
    (hkn1256.localdomain 76)
    (hkn1257.localdomain 76)
    (hkn1258.localdomain 76)
    (hkn1259.localdomain 76)
    (hkn1260.localdomain 76)
    (hkn1261.localdomain 76)
    (hkn1262.localdomain 76)
    (hkn1263.localdomain 76)
    (hkn1264.localdomain 76)
    (hkn1265.localdomain 76)
    (hkn1266.localdomain 76)
    (hkn1267.localdomain 76)
    (hkn1268.localdomain 76)
)
Pstream initialized with:
    floatTransfer      : 0
    nProcsSimpleSum    : 0
    commsType          : nonBlocking
    polling iterations : 0
trapFpe: Floating point exception trapping enabled (FOAM_SIGFPE).
fileModificationChecking : Monitoring run-time modified files using timeStampMaster (fileModificationSkew 5, maxFileModificationPolls 20)
allowSystemOperations : Allowing user-supplied system call operations

// * * * * * * * * * * * * * * * * * * * * * * * * * * * * * * * * * * * * * //
Create time

Create mesh for time = 0


PISO: Operating solver in PISO mode

Reading transportProperties

Reading field p

Reading field U

Reading/calculating face flux field phi


Starting time loop

Time = 2e-05

Courant Number mean: 0 max: 0
DILUPBiCGStab:  Solving for Ux, Initial residual = 1, Final residual = 0.00449846, No Iterations 5
DILUPBiCGStab:  Solving for Uy:  solution singularity
DILUPBiCGStab:  Solving for Uz:  solution singularity
linear solve U 42009
nonePCG:  Solving for p, Initial residual = 1, Final residual = 9.88879e-05, No Iterations 3819
linear solve p 4322212
time step continuity errors : sum local = 2.12597e-10, global = -1.75149e-22, cumulative = -1.75149e-22
nonePCG:  Solving for p, Initial residual = 0.763236, Final residual = 9.94395e-05, No Iterations 3803
linear solve p 3436662
time step continuity errors : sum local = 2.71369e-10, global = -1.93352e-23, cumulative = -1.94484e-22
ExecutionTime = 8.84 s  ClockTime = 9 s

Time = 4e-05

Courant Number mean: 0.00104924 max: 0.0777306
DILUPBiCGStab:  Solving for Ux, Initial residual = 0.15047, Final residual = 0.0035501, No Iterations 5
DILUPBiCGStab:  Solving for Uy, Initial residual = 0.357626, Final residual = 0.00521733, No Iterations 5
DILUPBiCGStab:  Solving for Uz, Initial residual = 0.748227, Final residual = 0.0141735, No Iterations 5
linear solve U 61226
nonePCG:  Solving for p, Initial residual = 0.791893, Final residual = 9.97005e-05, No Iterations 3702
linear solve p 3021362
time step continuity errors : sum local = 3.83565e-10, global = -1.14486e-22, cumulative = -3.08969e-22
nonePCG:  Solving for p, Initial residual = 0.728322, Final residual = 9.99108e-05, No Iterations 3702
linear solve p 2786724
time step continuity errors : sum local = 3.90935e-10, global = -7.88572e-23, cumulative = -3.87827e-22
ExecutionTime = 14.74 s  ClockTime = 15 s

Time = 6e-05

Courant Number mean: 0.00160091 max: 0.0884923
DILUPBiCGStab:  Solving for Ux, Initial residual = 0.0627024, Final residual = 0.00106719, No Iterations 5
DILUPBiCGStab:  Solving for Uy, Initial residual = 0.140938, Final residual = 0.00187532, No Iterations 5
DILUPBiCGStab:  Solving for Uz, Initial residual = 0.27508, Final residual = 0.00532514, No Iterations 5
linear solve U 61005
nonePCG:  Solving for p, Initial residual = 0.688264, Final residual = 9.92534e-05, No Iterations 3747
linear solve p 3671442
time step continuity errors : sum local = 2.25748e-10, global = -1.71139e-22, cumulative = -5.58965e-22
nonePCG:  Solving for p, Initial residual = 0.643105, Final residual = 9.90976e-05, No Iterations 3745
linear solve p 2445971
time step continuity errors : sum local = 2.18014e-10, global = -1.33235e-22, cumulative = -6.92201e-22
ExecutionTime = 20.94 s  ClockTime = 22 s

Time = 8e-05

Courant Number mean: 0.00198665 max: 0.0914032
DILUPBiCGStab:  Solving for Ux, Initial residual = 0.0417173, Final residual = 0.000514392, No Iterations 5
DILUPBiCGStab:  Solving for Uy, Initial residual = 0.0890593, Final residual = 0.000931396, No Iterations 5
DILUPBiCGStab:  Solving for Uz, Initial residual = 0.179207, Final residual = 0.0026076, No Iterations 5
linear solve U 62991
nonePCG:  Solving for p, Initial residual = 0.499965, Final residual = 9.83166e-05, No Iterations 1858
linear solve p 1945539
time step continuity errors : sum local = 1.96456e-10, global = -1.53171e-22, cumulative = -8.45371e-22
nonePCG:  Solving for p, Initial residual = 0.441194, Final residual = 9.95834e-05, No Iterations 1828
linear solve p 1959391
time step continuity errors : sum local = 1.8948e-10, global = -1.54037e-22, cumulative = -9.99408e-22
ExecutionTime = 24.92 s  ClockTime = 26 s

Time = 0.0001

Courant Number mean: 0.00230041 max: 0.0927982
DILUPBiCGStab:  Solving for Ux, Initial residual = 0.0319823, Final residual = 0.000319368, No Iterations 5
DILUPBiCGStab:  Solving for Uy, Initial residual = 0.0638429, Final residual = 0.000582684, No Iterations 5
DILUPBiCGStab:  Solving for Uz, Initial residual = 0.115319, Final residual = 0.00164945, No Iterations 5
linear solve U 88517
nonePCG:  Solving for p, Initial residual = 0.387488, Final residual = 9.97535e-05, No Iterations 1796
linear solve p 1558441
time step continuity errors : sum local = 1.52159e-10, global = -2.03459e-22, cumulative = -1.20287e-21
nonePCG:  Solving for p, Initial residual = 0.345674, Final residual = 9.96127e-05, No Iterations 1790
linear solve p 1110726
time step continuity errors : sum local = 1.46486e-10, global = -1.92596e-22, cumulative = -1.39546e-21
ExecutionTime = 27.72 s  ClockTime = 28 s

Time = 0.00012

Courant Number mean: 0.00256898 max: 0.0936728
DILUPBiCGStab:  Solving for Ux, Initial residual = 0.0260616, Final residual = 0.000228658, No Iterations 5
DILUPBiCGStab:  Solving for Uy, Initial residual = 0.0501914, Final residual = 0.000308766, No Iterations 5
DILUPBiCGStab:  Solving for Uz, Initial residual = 0.0997642, Final residual = 0.00132977, No Iterations 5
linear solve U 61934
nonePCG:  Solving for p, Initial residual = 0.269004, Final residual = 9.86579e-05, No Iterations 3615
linear solve p 2682101
time step continuity errors : sum local = 1.37086e-10, global = -2.74429e-22, cumulative = -1.66989e-21
nonePCG:  Solving for p, Initial residual = 0.236362, Final residual = 9.93722e-05, No Iterations 3597
linear solve p 3331581
time step continuity errors : sum local = 1.37966e-10, global = -2.06964e-22, cumulative = -1.87686e-21
ExecutionTime = 33.81 s  ClockTime = 35 s

Time = 0.00014

Courant Number mean: 0.00280656 max: 0.094281
DILUPBiCGStab:  Solving for Ux, Initial residual = 0.0221189, Final residual = 0.000177229, No Iterations 5
DILUPBiCGStab:  Solving for Uy, Initial residual = 0.0412137, Final residual = 0.000247271, No Iterations 5
DILUPBiCGStab:  Solving for Uz, Initial residual = 0.0820778, Final residual = 0.000877883, No Iterations 5
linear solve U 68471
nonePCG:  Solving for p, Initial residual = 0.203346, Final residual = 9.93547e-05, No Iterations 1652
linear solve p 1571056
time step continuity errors : sum local = 1.30573e-10, global = -2.50397e-22, cumulative = -2.12725e-21
nonePCG:  Solving for p, Initial residual = 0.18134, Final residual = 9.9827e-05, No Iterations 1646
linear solve p 1163276
time step continuity errors : sum local = 1.29625e-10, global = -2.20944e-22, cumulative = -2.3482e-21
ExecutionTime = 36.65 s  ClockTime = 37 s

Time = 0.00016

Courant Number mean: 0.00302088 max: 0.0947385
DILUPBiCGStab:  Solving for Ux, Initial residual = 0.0192641, Final residual = 0.000145224, No Iterations 5
DILUPBiCGStab:  Solving for Uy, Initial residual = 0.0349991, Final residual = 0.000190301, No Iterations 5
DILUPBiCGStab:  Solving for Uz, Initial residual = 0.0712307, Final residual = 0.000672086, No Iterations 5
linear solve U 63071
nonePCG:  Solving for p, Initial residual = 0.15137, Final residual = 9.94094e-05, No Iterations 1643
linear solve p 1035095
time step continuity errors : sum local = 1.27343e-10, global = -3.18545e-22, cumulative = -2.66674e-21
nonePCG:  Solving for p, Initial residual = 0.135963, Final residual = 9.91737e-05, No Iterations 1638
linear solve p 1115213
time step continuity errors : sum local = 1.25118e-10, global = -2.6368e-22, cumulative = -2.93042e-21
ExecutionTime = 38.9 s  ClockTime = 40 s

Time = 0.00018

Courant Number mean: 0.00321708 max: 0.0950997
DILUPBiCGStab:  Solving for Ux, Initial residual = 0.0170852, Final residual = 0.000123013, No Iterations 5
DILUPBiCGStab:  Solving for Uy, Initial residual = 0.0304057, Final residual = 0.000165417, No Iterations 5
DILUPBiCGStab:  Solving for Uz, Initial residual = 0.0623352, Final residual = 0.000524593, No Iterations 5
linear solve U 65907
nonePCG:  Solving for p, Initial residual = 0.122572, Final residual = 9.9212e-05, No Iterations 1615
linear solve p 1229978
time step continuity errors : sum local = 1.22459e-10, global = -3.05254e-22, cumulative = -3.23568e-21
nonePCG:  Solving for p, Initial residual = 0.111807, Final residual = 9.98871e-05, No Iterations 1611
linear solve p 1211704
time step continuity errors : sum local = 1.22976e-10, global = -2.17702e-22, cumulative = -3.45338e-21
ExecutionTime = 41.44 s  ClockTime = 42 s

Time = 0.0002

Courant Number mean: 0.00339859 max: 0.0953927
DILUPBiCGStab:  Solving for Ux, Initial residual = 0.0153756, Final residual = 0.000107026, No Iterations 5
DILUPBiCGStab:  Solving for Uy, Initial residual = 0.0268662, Final residual = 0.000143726, No Iterations 5
DILUPBiCGStab:  Solving for Uz, Initial residual = 0.055524, Final residual = 0.000437652, No Iterations 5
linear solve U 97536
nonePCG:  Solving for p, Initial residual = 0.0971084, Final residual = 9.95204e-05, No Iterations 1598
linear solve p 1260813
time step continuity errors : sum local = 1.23033e-10, global = -3.52026e-22, cumulative = -3.80541e-21
nonePCG:  Solving for p, Initial residual = 0.0903644, Final residual = 9.9289e-05, No Iterations 1594
linear solve p 1273158
time step continuity errors : sum local = 1.20809e-10, global = -2.59271e-22, cumulative = -4.06468e-21
ExecutionTime = 44.11 s  ClockTime = 45 s

End

Finalising parallel run
================================================================================
hash: 0604ee591d928b3a55f7ceaee74a9fb2
/*---------------------------------------------------------------------------*\
| =========                 |                                                 |
| \\      /  F ield         | OpenFOAM: The Open Source CFD Toolbox           |
|  \\    /   O peration     | Version:  2112                                  |
|   \\  /    A nd           | Website:  www.openfoam.com                      |
|    \\/     M anipulation  |                                                 |
\*---------------------------------------------------------------------------*/
Build  : d44c8318f0-20220111 OPENFOAM=2112 version=v2112
Arch   : "LSB;label=32;scalar=64"
Exec   : icoFoam -parallel
Date   : May 17 2022
Time   : 07:39:34
Host   : hkn1224.localdomain
PID    : 2635740
I/O    : uncollated
Case   : /hkfs/home/project/hk-project-test-fine/eq4036/data/code/ogl_labbook/lidDrivenCavity/scaling/Variation_mesh/500/Variation_matrix_solver/CG_NoPrecond_DefaultOF/Variation_mpiRank_of/152/base
nProcs : 152
Hosts  :
(
    (hkn1224.localdomain 76)
    (hkn1225.localdomain 76)
)
Pstream initialized with:
    floatTransfer      : 0
    nProcsSimpleSum    : 0
    commsType          : nonBlocking
    polling iterations : 0
trapFpe: Floating point exception trapping enabled (FOAM_SIGFPE).
fileModificationChecking : Monitoring run-time modified files using timeStampMaster (fileModificationSkew 5, maxFileModificationPolls 20)
allowSystemOperations : Allowing user-supplied system call operations

// * * * * * * * * * * * * * * * * * * * * * * * * * * * * * * * * * * * * * //
Create time

Create mesh for time = 0


PISO: Operating solver in PISO mode

Reading transportProperties

Reading field p

Reading field U

Reading/calculating face flux field phi


Starting time loop

Time = 2e-05

Courant Number mean: 0 max: 0
DILUPBiCGStab:  Solving for Ux, Initial residual = 1, Final residual = 0.00325626, No Iterations 5
DILUPBiCGStab:  Solving for Uy:  solution singularity
DILUPBiCGStab:  Solving for Uz:  solution singularity
linear solve U 1443962
nonePCG:  Solving for p, Initial residual = 1, Final residual = 9.90284e-05, No Iterations 3975
linear solve p 190593238
time step continuity errors : sum local = 1.82443e-10, global = -1.02727e-23, cumulative = -1.02727e-23
nonePCG:  Solving for p, Initial residual = 0.743849, Final residual = 9.93808e-05, No Iterations 3946
linear solve p 188756964
time step continuity errors : sum local = 2.39306e-10, global = -2.92697e-23, cumulative = -3.95425e-23
ExecutionTime = 385.12 s  ClockTime = 388 s

Time = 4e-05

Courant Number mean: 0.00105275 max: 0.0777065
DILUPBiCGStab:  Solving for Ux, Initial residual = 0.150341, Final residual = 0.00223644, No Iterations 5
DILUPBiCGStab:  Solving for Uy, Initial residual = 0.356762, Final residual = 0.00277426, No Iterations 5
DILUPBiCGStab:  Solving for Uz, Initial residual = 0.903013, Final residual = 0.0104887, No Iterations 5
linear solve U 2904178
nonePCG:  Solving for p, Initial residual = 0.739961, Final residual = 9.87934e-05, No Iterations 3900
linear solve p 185581092
time step continuity errors : sum local = 3.01439e-10, global = 8.68107e-24, cumulative = -3.08614e-23
nonePCG:  Solving for p, Initial residual = 0.67506, Final residual = 9.98547e-05, No Iterations 3849
linear solve p 184449157
time step continuity errors : sum local = 3.09569e-10, global = -8.00801e-23, cumulative = -1.10942e-22
ExecutionTime = 758.59 s  ClockTime = 763 s

Time = 6e-05

Courant Number mean: 0.00160394 max: 0.0884793
DILUPBiCGStab:  Solving for Ux, Initial residual = 0.0625084, Final residual = 0.000674048, No Iterations 5
DILUPBiCGStab:  Solving for Uy, Initial residual = 0.140629, Final residual = 0.000882991, No Iterations 5
DILUPBiCGStab:  Solving for Uz, Initial residual = 0.424074, Final residual = 0.00523871, No Iterations 5
linear solve U 2888486
nonePCG:  Solving for p, Initial residual = 0.669242, Final residual = 9.95675e-05, No Iterations 3775
linear solve p 179853642
time step continuity errors : sum local = 2.07486e-10, global = -6.43466e-23, cumulative = -1.75288e-22
nonePCG:  Solving for p, Initial residual = 0.620566, Final residual = 9.95388e-05, No Iterations 3771
linear solve p 180740077
time step continuity errors : sum local = 2.02274e-10, global = -7.32409e-23, cumulative = -2.48529e-22
ExecutionTime = 1122.67 s  ClockTime = 1128 s

Time = 8e-05

Courant Number mean: 0.00198963 max: 0.091392
DILUPBiCGStab:  Solving for Ux, Initial residual = 0.0415916, Final residual = 0.000330555, No Iterations 5
DILUPBiCGStab:  Solving for Uy, Initial residual = 0.0889106, Final residual = 0.00044794, No Iterations 5
DILUPBiCGStab:  Solving for Uz, Initial residual = 0.163061, Final residual = 0.00168217, No Iterations 5
linear solve U 2893683
nonePCG:  Solving for p, Initial residual = 0.458019, Final residual = 9.8685e-05, No Iterations 3657
linear solve p 174741573
time step continuity errors : sum local = 1.69241e-10, global = -5.71806e-23, cumulative = -3.0571e-22
nonePCG:  Solving for p, Initial residual = 0.398088, Final residual = 9.97697e-05, No Iterations 3641
linear solve p 173880007
time step continuity errors : sum local = 1.72207e-10, global = -9.35259e-23, cumulative = -3.99236e-22
ExecutionTime = 1474.87 s  ClockTime = 1482 s

Time = 0.0001

Courant Number mean: 0.00230344 max: 0.09279
DILUPBiCGStab:  Solving for Ux, Initial residual = 0.0318898, Final residual = 0.000190053, No Iterations 5
DILUPBiCGStab:  Solving for Uy, Initial residual = 0.0637514, Final residual = 0.000330367, No Iterations 5
DILUPBiCGStab:  Solving for Uz, Initial residual = 0.0954933, Final residual = 0.00102823, No Iterations 5
linear solve U 2893887
nonePCG:  Solving for p, Initial residual = 0.356719, Final residual = 9.99451e-05, No Iterations 3704
linear solve p 177959423
time step continuity errors : sum local = 1.40149e-10, global = -2.02398e-23, cumulative = -4.19475e-22
nonePCG:  Solving for p, Initial residual = 0.313017, Final residual = 9.98176e-05, No Iterations 3699
linear solve p 176372717
time step continuity errors : sum local = 1.38985e-10, global = -7.34916e-23, cumulative = -4.92967e-22
ExecutionTime = 1832.77 s  ClockTime = 1842 s

Time = 0.00012

Courant Number mean: 0.00257202 max: 0.0936662
DILUPBiCGStab:  Solving for Ux, Initial residual = 0.0259866, Final residual = 0.000123081, No Iterations 5
DILUPBiCGStab:  Solving for Uy, Initial residual = 0.0501421, Final residual = 0.00021162, No Iterations 5
DILUPBiCGStab:  Solving for Uz, Initial residual = 0.0817784, Final residual = 0.000839595, No Iterations 5
linear solve U 2902056
nonePCG:  Solving for p, Initial residual = 0.234486, Final residual = 9.97779e-05, No Iterations 3651
linear solve p 173038994
time step continuity errors : sum local = 1.31914e-10, global = -1.24187e-22, cumulative = -6.17154e-22
nonePCG:  Solving for p, Initial residual = 0.201461, Final residual = 9.94422e-05, No Iterations 3648
linear solve p 174437953
time step continuity errors : sum local = 1.31376e-10, global = -1.27503e-22, cumulative = -7.44658e-22
ExecutionTime = 2183.7 s  ClockTime = 2194 s

Time = 0.00014

Courant Number mean: 0.00280959 max: 0.0942767
DILUPBiCGStab:  Solving for Ux, Initial residual = 0.0220589, Final residual = 8.70818e-05, No Iterations 5
DILUPBiCGStab:  Solving for Uy, Initial residual = 0.0411783, Final residual = 0.000167797, No Iterations 5
DILUPBiCGStab:  Solving for Uz, Initial residual = 0.0684133, Final residual = 0.000573384, No Iterations 5
linear solve U 2900122
nonePCG:  Solving for p, Initial residual = 0.173325, Final residual = 9.93616e-05, No Iterations 1732
linear solve p 83411976
time step continuity errors : sum local = 1.33592e-10, global = -9.25737e-23, cumulative = -8.37231e-22
nonePCG:  Solving for p, Initial residual = 0.150403, Final residual = 9.96226e-05, No Iterations 1649
linear solve p 79016148
time step continuity errors : sum local = 1.25788e-10, global = -1.12887e-22, cumulative = -9.50118e-22
ExecutionTime = 2350.52 s  ClockTime = 2362 s

Time = 0.00016

Courant Number mean: 0.00302386 max: 0.0947357
DILUPBiCGStab:  Solving for Ux, Initial residual = 0.0192118, Final residual = 6.72005e-05, No Iterations 5
DILUPBiCGStab:  Solving for Uy, Initial residual = 0.0349761, Final residual = 0.000109321, No Iterations 5
DILUPBiCGStab:  Solving for Uz, Initial residual = 0.0628596, Final residual = 0.000484523, No Iterations 5
linear solve U 2906865
nonePCG:  Solving for p, Initial residual = 0.119515, Final residual = 9.98707e-05, No Iterations 1652
linear solve p 78962991
time step continuity errors : sum local = 1.2268e-10, global = -1.0341e-22, cumulative = -1.05353e-21
nonePCG:  Solving for p, Initial residual = 0.103536, Final residual = 9.9973e-05, No Iterations 1645
linear solve p 78627947
time step continuity errors : sum local = 1.2115e-10, global = -1.03988e-22, cumulative = -1.15752e-21
ExecutionTime = 2512.55 s  ClockTime = 2525 s

Time = 0.00018

Courant Number mean: 0.00322001 max: 0.0950967
DILUPBiCGStab:  Solving for Ux, Initial residual = 0.0170453, Final residual = 5.47249e-05, No Iterations 5
DILUPBiCGStab:  Solving for Uy, Initial residual = 0.0303866, Final residual = 9.56485e-05, No Iterations 5
DILUPBiCGStab:  Solving for Uz, Initial residual = 0.0543464, Final residual = 0.000346248, No Iterations 5
linear solve U 2890529
nonePCG:  Solving for p, Initial residual = 0.0929313, Final residual = 9.89451e-05, No Iterations 3599
linear solve p 171430457
time step continuity errors : sum local = 1.17466e-10, global = -1.12139e-22, cumulative = -1.26965e-21
nonePCG:  Solving for p, Initial residual = 0.0814429, Final residual = 9.96183e-05, No Iterations 3592
linear solve p 172841107
time step continuity errors : sum local = 1.18274e-10, global = -1.13214e-22, cumulative = -1.38287e-21
ExecutionTime = 2860.45 s  ClockTime = 2874 s

Time = 0.0002

Courant Number mean: 0.00340147 max: 0.0953899
DILUPBiCGStab:  Solving for Ux, Initial residual = 0.015341, Final residual = 4.75482e-05, No Iterations 5
DILUPBiCGStab:  Solving for Uy, Initial residual = 0.0268525, Final residual = 7.61597e-05, No Iterations 5
DILUPBiCGStab:  Solving for Uz, Initial residual = 0.0486286, Final residual = 0.000244687, No Iterations 5
linear solve U 2898717
nonePCG:  Solving for p, Initial residual = 0.0674053, Final residual = 9.93431e-05, No Iterations 1581
linear solve p 75729436
time step continuity errors : sum local = 1.19841e-10, global = -8.80535e-23, cumulative = -1.47092e-21
nonePCG:  Solving for p, Initial residual = 0.0602405, Final residual = 9.96624e-05, No Iterations 1572
linear solve p 75521018
time step continuity errors : sum local = 1.1704e-10, global = -1.64436e-22, cumulative = -1.63536e-21
ExecutionTime = 3016.14 s  ClockTime = 3030 s

End

Finalising parallel run

================================================================================
hash: a7f9e1a45438e33032e67a2a0ea718f8
/*---------------------------------------------------------------------------*\
| =========                 |                                                 |
| \\      /  F ield         | OpenFOAM: The Open Source CFD Toolbox           |
|  \\    /   O peration     | Version:  2112                                  |
|   \\  /    A nd           | Website:  www.openfoam.com                      |
|    \\/     M anipulation  |                                                 |
\*---------------------------------------------------------------------------*/
Build  : d44c8318f0-20220111 OPENFOAM=2112 version=v2112
Arch   : "LSB;label=32;scalar=64"
Exec   : icoFoam -parallel
Date   : May 17 2022
Time   : 07:42:04
Host   : hkn0303.localdomain
PID    : 2836927
I/O    : uncollated
Case   : /hkfs/home/project/hk-project-test-fine/eq4036/data/code/ogl_labbook/lidDrivenCavity/scaling/Variation_mesh/500/Variation_matrix_solver/CG_NoPrecond_DefaultOF/Variation_mpiRank_of/304/base
nProcs : 304
Hosts  :
(
    (hkn0303.localdomain 76)
    (hkn0304.localdomain 76)
    (hkn0305.localdomain 76)
    (hkn0306.localdomain 76)
)
Pstream initialized with:
    floatTransfer      : 0
    nProcsSimpleSum    : 0
    commsType          : nonBlocking
    polling iterations : 0
trapFpe: Floating point exception trapping enabled (FOAM_SIGFPE).
fileModificationChecking : Monitoring run-time modified files using timeStampMaster (fileModificationSkew 5, maxFileModificationPolls 20)
allowSystemOperations : Allowing user-supplied system call operations

// * * * * * * * * * * * * * * * * * * * * * * * * * * * * * * * * * * * * * //
Create time

Create mesh for time = 0


PISO: Operating solver in PISO mode

Reading transportProperties

Reading field p

Reading field U

Reading/calculating face flux field phi


Starting time loop

Time = 2e-05

Courant Number mean: 0 max: 0
DILUPBiCGStab:  Solving for Ux, Initial residual = 1, Final residual = 0.00340917, No Iterations 5
DILUPBiCGStab:  Solving for Uy:  solution singularity
DILUPBiCGStab:  Solving for Uz:  solution singularity
linear solve U 718128
nonePCG:  Solving for p, Initial residual = 1, Final residual = 9.92583e-05, No Iterations 3975
linear solve p 94214410
time step continuity errors : sum local = 1.86699e-10, global = 3.78044e-23, cumulative = 3.78044e-23
nonePCG:  Solving for p, Initial residual = 0.74578, Final residual = 9.87425e-05, No Iterations 3944
linear solve p 92791742
time step continuity errors : sum local = 2.42067e-10, global = -3.16932e-23, cumulative = 6.11118e-24
ExecutionTime = 190.81 s  ClockTime = 192 s

Time = 4e-05

Courant Number mean: 0.00105232 max: 0.0776959
DILUPBiCGStab:  Solving for Ux, Initial residual = 0.150359, Final residual = 0.00242656, No Iterations 5
DILUPBiCGStab:  Solving for Uy, Initial residual = 0.356881, Final residual = 0.00315321, No Iterations 5
DILUPBiCGStab:  Solving for Uz, Initial residual = 0.868093, Final residual = 0.0113817, No Iterations 5
linear solve U 1459025
nonePCG:  Solving for p, Initial residual = 0.750691, Final residual = 9.87316e-05, No Iterations 3902
linear solve p 92424650
time step continuity errors : sum local = 3.14632e-10, global = -3.69445e-23, cumulative = -3.08333e-23
nonePCG:  Solving for p, Initial residual = 0.686245, Final residual = 9.91386e-05, No Iterations 3896
linear solve p 93013233
time step continuity errors : sum local = 3.2121e-10, global = -1.23697e-22, cumulative = -1.5453e-22
ExecutionTime = 377.96 s  ClockTime = 380 s

Time = 6e-05

Courant Number mean: 0.0016037 max: 0.0884846
DILUPBiCGStab:  Solving for Ux, Initial residual = 0.0625335, Final residual = 0.000739147, No Iterations 5
DILUPBiCGStab:  Solving for Uy, Initial residual = 0.140668, Final residual = 0.00119465, No Iterations 5
DILUPBiCGStab:  Solving for Uz, Initial residual = 0.368799, Final residual = 0.00508565, No Iterations 5
linear solve U 1452203
nonePCG:  Solving for p, Initial residual = 0.673172, Final residual = 9.91867e-05, No Iterations 3752
linear solve p 88702073
time step continuity errors : sum local = 2.10505e-10, global = -3.87744e-23, cumulative = -1.93305e-22
nonePCG:  Solving for p, Initial residual = 0.626152, Final residual = 9.81798e-05, No Iterations 3750
linear solve p 87940536
time step continuity errors : sum local = 2.03002e-10, global = -3.81083e-23, cumulative = -2.31413e-22
ExecutionTime = 556.27 s  ClockTime = 559 s

Time = 8e-05

Courant Number mean: 0.00198947 max: 0.0913906
DILUPBiCGStab:  Solving for Ux, Initial residual = 0.0416069, Final residual = 0.000356497, No Iterations 5
DILUPBiCGStab:  Solving for Uy, Initial residual = 0.0889274, Final residual = 0.00059066, No Iterations 5
DILUPBiCGStab:  Solving for Uz, Initial residual = 0.160256, Final residual = 0.00189779, No Iterations 5
linear solve U 1463603
nonePCG:  Solving for p, Initial residual = 0.466769, Final residual = 9.92912e-05, No Iterations 3650
linear solve p 86065101
time step continuity errors : sum local = 1.73312e-10, global = -7.48878e-23, cumulative = -3.06301e-22
nonePCG:  Solving for p, Initial residual = 0.407465, Final residual = 9.98322e-05, No Iterations 3641
linear solve p 85910525
time step continuity errors : sum local = 1.75353e-10, global = -8.4604e-23, cumulative = -3.90905e-22
ExecutionTime = 730.06 s  ClockTime = 734 s

Time = 0.0001

Courant Number mean: 0.00230331 max: 0.0927897
DILUPBiCGStab:  Solving for Ux, Initial residual = 0.0319012, Final residual = 0.000205546, No Iterations 5
DILUPBiCGStab:  Solving for Uy, Initial residual = 0.0637599, Final residual = 0.000446595, No Iterations 5
DILUPBiCGStab:  Solving for Uz, Initial residual = 0.0950563, Final residual = 0.00115093, No Iterations 5
linear solve U 1460894
nonePCG:  Solving for p, Initial residual = 0.364114, Final residual = 9.86389e-05, No Iterations 3606
linear solve p 86168261
time step continuity errors : sum local = 1.40124e-10, global = -1.18277e-22, cumulative = -5.09182e-22
nonePCG:  Solving for p, Initial residual = 0.321111, Final residual = 9.89238e-05, No Iterations 3593
linear solve p 84890267
time step continuity errors : sum local = 1.39506e-10, global = -1.81186e-23, cumulative = -5.273e-22
ExecutionTime = 902.86 s  ClockTime = 908 s

Time = 0.00012

Courant Number mean: 0.00257191 max: 0.0936644
DILUPBiCGStab:  Solving for Ux, Initial residual = 0.0259951, Final residual = 0.000135504, No Iterations 5
DILUPBiCGStab:  Solving for Uy, Initial residual = 0.0501457, Final residual = 0.000258076, No Iterations 5
DILUPBiCGStab:  Solving for Uz, Initial residual = 0.0827485, Final residual = 0.000959469, No Iterations 5
linear solve U 1459221
nonePCG:  Solving for p, Initial residual = 0.24077, Final residual = 9.97318e-05, No Iterations 3623
linear solve p 85213936
time step continuity errors : sum local = 1.33033e-10, global = -1.5847e-22, cumulative = -6.8577e-22
nonePCG:  Solving for p, Initial residual = 0.207984, Final residual = 9.97169e-05, No Iterations 3616
linear solve p 85409153
time step continuity errors : sum local = 1.3291e-10, global = -1.35193e-22, cumulative = -8.20963e-22
ExecutionTime = 1075.31 s  ClockTime = 1081 s

Time = 0.00014

Courant Number mean: 0.00280949 max: 0.0942761
DILUPBiCGStab:  Solving for Ux, Initial residual = 0.0220658, Final residual = 9.81774e-05, No Iterations 5
DILUPBiCGStab:  Solving for Uy, Initial residual = 0.0411791, Final residual = 0.000199957, No Iterations 5
DILUPBiCGStab:  Solving for Uz, Initial residual = 0.06917, Final residual = 0.000630874, No Iterations 5
linear solve U 1463264
nonePCG:  Solving for p, Initial residual = 0.17903, Final residual = 9.96545e-05, No Iterations 3627
linear solve p 85331408
time step continuity errors : sum local = 1.25263e-10, global = -1.13422e-22, cumulative = -9.34385e-22
nonePCG:  Solving for p, Initial residual = 0.156243, Final residual = 9.98259e-05, No Iterations 3623
linear solve p 85614627
time step continuity errors : sum local = 1.25406e-10, global = -1.21754e-22, cumulative = -1.05614e-21
ExecutionTime = 1248.07 s  ClockTime = 1254 s

Time = 0.00016

Courant Number mean: 0.00302378 max: 0.0947357
DILUPBiCGStab:  Solving for Ux, Initial residual = 0.0192218, Final residual = 7.87301e-05, No Iterations 5
DILUPBiCGStab:  Solving for Uy, Initial residual = 0.034972, Final residual = 0.000132494, No Iterations 5
DILUPBiCGStab:  Solving for Uz, Initial residual = 0.0613478, Final residual = 0.000450812, No Iterations 5
linear solve U 1459922
nonePCG:  Solving for p, Initial residual = 0.12519, Final residual = 9.91159e-05, No Iterations 3608
linear solve p 84367115
time step continuity errors : sum local = 1.20862e-10, global = -8.75397e-23, cumulative = -1.14368e-21
nonePCG:  Solving for p, Initial residual = 0.10934, Final residual = 9.84584e-05, No Iterations 3580
linear solve p 83702774
time step continuity errors : sum local = 1.19979e-10, global = -1.49727e-22, cumulative = -1.29341e-21
ExecutionTime = 1417.95 s  ClockTime = 1425 s

Time = 0.00018

Courant Number mean: 0.00321994 max: 0.0950968
DILUPBiCGStab:  Solving for Ux, Initial residual = 0.0170499, Final residual = 6.6269e-05, No Iterations 5
DILUPBiCGStab:  Solving for Uy, Initial residual = 0.0303843, Final residual = 0.000116252, No Iterations 5
DILUPBiCGStab:  Solving for Uz, Initial residual = 0.0545189, Final residual = 0.000348163, No Iterations 5
linear solve U 1469473
nonePCG:  Solving for p, Initial residual = 0.0981156, Final residual = 9.80859e-05, No Iterations 3580
linear solve p 84476575
time step continuity errors : sum local = 1.17154e-10, global = -1.27199e-22, cumulative = -1.42061e-21
nonePCG:  Solving for p, Initial residual = 0.0867585, Final residual = 9.99994e-05, No Iterations 3571
linear solve p 84826545
time step continuity errors : sum local = 1.19442e-10, global = -1.16161e-22, cumulative = -1.53677e-21
ExecutionTime = 1589.04 s  ClockTime = 1597 s

Time = 0.0002

Courant Number mean: 0.0034014 max: 0.0953901
DILUPBiCGStab:  Solving for Ux, Initial residual = 0.0153455, Final residual = 5.77369e-05, No Iterations 5
DILUPBiCGStab:  Solving for Uy, Initial residual = 0.0268508, Final residual = 9.59152e-05, No Iterations 5
DILUPBiCGStab:  Solving for Uz, Initial residual = 0.0494181, Final residual = 0.000266525, No Iterations 5
linear solve U 1461838
nonePCG:  Solving for p, Initial residual = 0.0726679, Final residual = 9.97724e-05, No Iterations 3586
linear solve p 84127754
time step continuity errors : sum local = 1.17464e-10, global = -6.89417e-23, cumulative = -1.60571e-21
nonePCG:  Solving for p, Initial residual = 0.0655895, Final residual = 9.88819e-05, No Iterations 3580
linear solve p 84663729
time step continuity errors : sum local = 1.16426e-10, global = -2.0489e-22, cumulative = -1.8106e-21
ExecutionTime = 1759.6 s  ClockTime = 1768 s

End

Finalising parallel run

================================================================================
hash: 2b0b3515a56ced5b0e1ca419a5a55f88
/*---------------------------------------------------------------------------*\
| =========                 |                                                 |
| \\      /  F ield         | OpenFOAM: The Open Source CFD Toolbox           |
|  \\    /   O peration     | Version:  2112                                  |
|   \\  /    A nd           | Website:  www.openfoam.com                      |
|    \\/     M anipulation  |                                                 |
\*---------------------------------------------------------------------------*/
Build  : d44c8318f0-20220111 OPENFOAM=2112 version=v2112
Arch   : "LSB;label=32;scalar=64"
Exec   : icoFoam -parallel
Date   : May 17 2022
Time   : 07:45:05
Host   : hkn1101.localdomain
PID    : 2554482
I/O    : uncollated
Case   : /hkfs/home/project/hk-project-test-fine/eq4036/data/code/ogl_labbook/lidDrivenCavity/scaling/Variation_mesh/500/Variation_matrix_solver/CG_NoPrecond_DefaultOF/Variation_mpiRank_of/2432/base
nProcs : 2432
Hosts  :
(
    (hkn1101.localdomain 76)
    (hkn1102.localdomain 76)
    (hkn1103.localdomain 76)
    (hkn1104.localdomain 76)
    (hkn1105.localdomain 76)
    (hkn1106.localdomain 76)
    (hkn1107.localdomain 76)
    (hkn1108.localdomain 76)
    (hkn1109.localdomain 76)
    (hkn1110.localdomain 76)
    (hkn1111.localdomain 76)
    (hkn1112.localdomain 76)
    (hkn1113.localdomain 76)
    (hkn1114.localdomain 76)
    (hkn1250.localdomain 76)
    (hkn1251.localdomain 76)
    (hkn1252.localdomain 76)
    (hkn1253.localdomain 76)
    (hkn1254.localdomain 76)
    (hkn1256.localdomain 76)
    (hkn1257.localdomain 76)
    (hkn1258.localdomain 76)
    (hkn1259.localdomain 76)
    (hkn1260.localdomain 76)
    (hkn1261.localdomain 76)
    (hkn1262.localdomain 76)
    (hkn1263.localdomain 76)
    (hkn1264.localdomain 76)
    (hkn1265.localdomain 76)
    (hkn1266.localdomain 76)
    (hkn1267.localdomain 76)
    (hkn1268.localdomain 76)
)
Pstream initialized with:
    floatTransfer      : 0
    nProcsSimpleSum    : 0
    commsType          : nonBlocking
    polling iterations : 0
trapFpe: Floating point exception trapping enabled (FOAM_SIGFPE).
fileModificationChecking : Monitoring run-time modified files using timeStampMaster (fileModificationSkew 5, maxFileModificationPolls 20)
allowSystemOperations : Allowing user-supplied system call operations

// * * * * * * * * * * * * * * * * * * * * * * * * * * * * * * * * * * * * * //
Create time

Create mesh for time = 0


PISO: Operating solver in PISO mode

Reading transportProperties

Reading field p

Reading field U

Reading/calculating face flux field phi


Starting time loop

Time = 2e-05

Courant Number mean: 0 max: 0
DILUPBiCGStab:  Solving for Ux, Initial residual = 1, Final residual = 0.00412077, No Iterations 5
DILUPBiCGStab:  Solving for Uy:  solution singularity
DILUPBiCGStab:  Solving for Uz:  solution singularity
linear solve U 100968
nonePCG:  Solving for p, Initial residual = 1, Final residual = 9.97568e-05, No Iterations 3855
linear solve p 7836054
time step continuity errors : sum local = 2.058e-10, global = 8.91897e-23, cumulative = 8.91897e-23
nonePCG:  Solving for p, Initial residual = 0.758036, Final residual = 9.81347e-05, No Iterations 3836
linear solve p 7401168
time step continuity errors : sum local = 2.58997e-10, global = -5.3118e-23, cumulative = 3.60717e-23
ExecutionTime = 16.68 s  ClockTime = 17 s

Time = 4e-05

Courant Number mean: 0.00105034 max: 0.0777712
DILUPBiCGStab:  Solving for Ux, Initial residual = 0.150431, Final residual = 0.00319615, No Iterations 5
DILUPBiCGStab:  Solving for Uy, Initial residual = 0.357366, Final residual = 0.00470451, No Iterations 5
DILUPBiCGStab:  Solving for Uz, Initial residual = 0.781619, Final residual = 0.0134945, No Iterations 5
linear solve U 207454
nonePCG:  Solving for p, Initial residual = 0.782227, Final residual = 9.92066e-05, No Iterations 3815
linear solve p 7623761
time step continuity errors : sum local = 3.63883e-10, global = -1.41606e-22, cumulative = -1.05534e-22
nonePCG:  Solving for p, Initial residual = 0.719121, Final residual = 9.95482e-05, No Iterations 3809
linear solve p 7271938
time step continuity errors : sum local = 3.71306e-10, global = -4.94951e-23, cumulative = -1.55029e-22
ExecutionTime = 31.83 s  ClockTime = 32 s

Time = 6e-05

Courant Number mean: 0.00160212 max: 0.0884812
DILUPBiCGStab:  Solving for Ux, Initial residual = 0.0626423, Final residual = 0.000967065, No Iterations 5
DILUPBiCGStab:  Solving for Uy, Initial residual = 0.140822, Final residual = 0.00182123, No Iterations 5
DILUPBiCGStab:  Solving for Uz, Initial residual = 0.291316, Final residual = 0.00502522, No Iterations 5
linear solve U 182733
nonePCG:  Solving for p, Initial residual = 0.685243, Final residual = 9.90494e-05, No Iterations 3778
linear solve p 6916461
time step continuity errors : sum local = 2.22024e-10, global = -1.74846e-22, cumulative = -3.29875e-22
nonePCG:  Solving for p, Initial residual = 0.640712, Final residual = 9.96289e-05, No Iterations 3775
linear solve p 7162875
time step continuity errors : sum local = 2.16536e-10, global = -1.6087e-22, cumulative = -4.90745e-22
ExecutionTime = 46.14 s  ClockTime = 46 s

Time = 8e-05

Courant Number mean: 0.00198799 max: 0.0913958
DILUPBiCGStab:  Solving for Ux, Initial residual = 0.0416781, Final residual = 0.000462498, No Iterations 5
DILUPBiCGStab:  Solving for Uy, Initial residual = 0.088994, Final residual = 0.000902741, No Iterations 5
DILUPBiCGStab:  Solving for Uz, Initial residual = 0.169256, Final residual = 0.00222024, No Iterations 5
linear solve U 156749
nonePCG:  Solving for p, Initial residual = 0.491904, Final residual = 9.91248e-05, No Iterations 3684
linear solve p 6609629
time step continuity errors : sum local = 1.82391e-10, global = -7.73752e-23, cumulative = -5.6812e-22
nonePCG:  Solving for p, Initial residual = 0.433524, Final residual = 9.94488e-05, No Iterations 3671
linear solve p 6680835
time step continuity errors : sum local = 1.83994e-10, global = -9.79803e-23, cumulative = -6.661e-22
ExecutionTime = 59.64 s  ClockTime = 60 s

Time = 0.0001

Courant Number mean: 0.00230186 max: 0.092791
DILUPBiCGStab:  Solving for Ux, Initial residual = 0.0319553, Final residual = 0.000281969, No Iterations 5
DILUPBiCGStab:  Solving for Uy, Initial residual = 0.0637926, Final residual = 0.000582456, No Iterations 5
DILUPBiCGStab:  Solving for Uz, Initial residual = 0.10553, Final residual = 0.00143452, No Iterations 5
linear solve U 177703
nonePCG:  Solving for p, Initial residual = 0.382913, Final residual = 9.95734e-05, No Iterations 3711
linear solve p 6496207
time step continuity errors : sum local = 1.46425e-10, global = -1.4507e-22, cumulative = -8.1117e-22
nonePCG:  Solving for p, Initial residual = 0.34128, Final residual = 9.89271e-05, No Iterations 3707
linear solve p 6492353
time step continuity errors : sum local = 1.44208e-10, global = -1.92806e-22, cumulative = -1.00398e-21
ExecutionTime = 72.86 s  ClockTime = 73 s

Time = 0.00012

Courant Number mean: 0.0025705 max: 0.0936679
DILUPBiCGStab:  Solving for Ux, Initial residual = 0.0260369, Final residual = 0.000200663, No Iterations 5
DILUPBiCGStab:  Solving for Uy, Initial residual = 0.0501644, Final residual = 0.000304319, No Iterations 5
DILUPBiCGStab:  Solving for Uz, Initial residual = 0.0912737, Final residual = 0.00108661, No Iterations 5
linear solve U 166737
nonePCG:  Solving for p, Initial residual = 0.262555, Final residual = 9.95807e-05, No Iterations 3526
linear solve p 6137362
time step continuity errors : sum local = 1.37051e-10, global = -2.16701e-22, cumulative = -1.22068e-21
nonePCG:  Solving for p, Initial residual = 0.230172, Final residual = 9.71885e-05, No Iterations 3524
linear solve p 6028661
time step continuity errors : sum local = 1.33648e-10, global = -1.06152e-22, cumulative = -1.32683e-21
ExecutionTime = 85.24 s  ClockTime = 86 s

Time = 0.00014

Courant Number mean: 0.00280812 max: 0.0942796
DILUPBiCGStab:  Solving for Ux, Initial residual = 0.0220998, Final residual = 0.000154936, No Iterations 5
DILUPBiCGStab:  Solving for Uy, Initial residual = 0.0411897, Final residual = 0.000241862, No Iterations 5
DILUPBiCGStab:  Solving for Uz, Initial residual = 0.0766169, Final residual = 0.000773565, No Iterations 5
linear solve U 170722
nonePCG:  Solving for p, Initial residual = 0.198157, Final residual = 9.92538e-05, No Iterations 3616
linear solve p 6230015
time step continuity errors : sum local = 1.28029e-10, global = -1.12081e-22, cumulative = -1.43891e-21
nonePCG:  Solving for p, Initial residual = 0.176064, Final residual = 9.98051e-05, No Iterations 3525
linear solve p 5988871
time step continuity errors : sum local = 1.28597e-10, global = -2.32429e-22, cumulative = -1.67134e-21
ExecutionTime = 97.68 s  ClockTime = 98 s

Time = 0.00016

Courant Number mean: 0.00302246 max: 0.0947385
DILUPBiCGStab:  Solving for Ux, Initial residual = 0.0192494, Final residual = 0.000126938, No Iterations 5
DILUPBiCGStab:  Solving for Uy, Initial residual = 0.0349783, Final residual = 0.000181, No Iterations 5
DILUPBiCGStab:  Solving for Uz, Initial residual = 0.0672334, Final residual = 0.000594676, No Iterations 5
linear solve U 164427
nonePCG:  Solving for p, Initial residual = 0.145465, Final residual = 9.92751e-05, No Iterations 1726
linear solve p 2865999
time step continuity errors : sum local = 1.336e-10, global = -2.59734e-22, cumulative = -1.93107e-21
nonePCG:  Solving for p, Initial residual = 0.13005, Final residual = 9.97564e-05, No Iterations 1624
linear solve p 2680545
time step continuity errors : sum local = 1.26174e-10, global = -2.09922e-22, cumulative = -2.14099e-21
ExecutionTime = 103.48 s  ClockTime = 104 s

Time = 0.00018

Courant Number mean: 0.00321867 max: 0.0950992
DILUPBiCGStab:  Solving for Ux, Initial residual = 0.0170684, Final residual = 0.000107502, No Iterations 5
DILUPBiCGStab:  Solving for Uy, Initial residual = 0.0303893, Final residual = 0.000157696, No Iterations 5
DILUPBiCGStab:  Solving for Uz, Initial residual = 0.059998, Final residual = 0.000553425, No Iterations 5
linear solve U 169221
nonePCG:  Solving for p, Initial residual = 0.117307, Final residual = 9.95308e-05, No Iterations 1624
linear solve p 2823040
time step continuity errors : sum local = 1.23172e-10, global = -2.34395e-22, cumulative = -2.37539e-21
nonePCG:  Solving for p, Initial residual = 0.106404, Final residual = 9.92546e-05, No Iterations 1619
linear solve p 2719366
time step continuity errors : sum local = 1.21514e-10, global = -1.67551e-22, cumulative = -2.54294e-21
ExecutionTime = 109.29 s  ClockTime = 110 s

Time = 0.0002

Courant Number mean: 0.00340018 max: 0.0953919
DILUPBiCGStab:  Solving for Ux, Initial residual = 0.0153651, Final residual = 9.37158e-05, No Iterations 5
DILUPBiCGStab:  Solving for Uy, Initial residual = 0.0268538, Final residual = 0.000136292, No Iterations 5
DILUPBiCGStab:  Solving for Uz, Initial residual = 0.0532893, Final residual = 0.000431372, No Iterations 5
linear solve U 157553
nonePCG:  Solving for p, Initial residual = 0.0915899, Final residual = 9.99374e-05, No Iterations 3403
linear solve p 5656135
time step continuity errors : sum local = 1.20247e-10, global = -2.27158e-22, cumulative = -2.7701e-21
nonePCG:  Solving for p, Initial residual = 0.0847806, Final residual = 9.98287e-05, No Iterations 3385
linear solve p 5670561
time step continuity errors : sum local = 1.20127e-10, global = -1.36514e-22, cumulative = -2.90661e-21
ExecutionTime = 120.83 s  ClockTime = 122 s

End

Finalising parallel run
================================================================================
hash: 8a29328fd655a971467f928c60d48883
/*---------------------------------------------------------------------------*\
| =========                 |                                                 |
| \\      /  F ield         | OpenFOAM: The Open Source CFD Toolbox           |
|  \\    /   O peration     | Version:  2112                                  |
|   \\  /    A nd           | Website:  www.openfoam.com                      |
|    \\/     M anipulation  |                                                 |
\*---------------------------------------------------------------------------*/
Build  : d44c8318f0-20220111 OPENFOAM=2112 version=v2112
Arch   : "LSB;label=32;scalar=64"
Exec   : icoFoam -parallel
Date   : May 17 2022
Time   : 07:45:02
Host   : hkn1115.localdomain
PID    : 2803580
I/O    : uncollated
Case   : /hkfs/home/project/hk-project-test-fine/eq4036/data/code/ogl_labbook/lidDrivenCavity/scaling/Variation_mesh/500/Variation_matrix_solver/CG_NoPrecond_DefaultOF/Variation_mpiRank_of/38/base
nProcs : 38
Hosts  :
(
    (hkn1115.localdomain 38)
)
Pstream initialized with:
    floatTransfer      : 0
    nProcsSimpleSum    : 0
    commsType          : nonBlocking
    polling iterations : 0
trapFpe: Floating point exception trapping enabled (FOAM_SIGFPE).
fileModificationChecking : Monitoring run-time modified files using timeStampMaster (fileModificationSkew 5, maxFileModificationPolls 20)
allowSystemOperations : Allowing user-supplied system call operations

// * * * * * * * * * * * * * * * * * * * * * * * * * * * * * * * * * * * * * //
Create time

Create mesh for time = 0


PISO: Operating solver in PISO mode

Reading transportProperties

Reading field p

Reading field U

Reading/calculating face flux field phi


Starting time loop

Time = 2e-05

Courant Number mean: 0 max: 0
DILUPBiCGStab:  Solving for Ux, Initial residual = 1, Final residual = 0.00294719, No Iterations 5
DILUPBiCGStab:  Solving for Uy:  solution singularity
DILUPBiCGStab:  Solving for Uz:  solution singularity
linear solve U 6024566
nonePCG:  Solving for p, Initial residual = 1, Final residual = 9.98108e-05, No Iterations 3973
linear solve p 761962499
time step continuity errors : sum local = 1.7746e-10, global = -1.70503e-23, cumulative = -1.70503e-23
nonePCG:  Solving for p, Initial residual = 0.738714, Final residual = 9.83542e-05, No Iterations 3940
linear solve p 758053765
time step continuity errors : sum local = 2.30346e-10, global = -3.02408e-23, cumulative = -4.7291e-23
ExecutionTime = 1543.43 s  ClockTime = 1551 s

Time = 4e-05

Courant Number mean: 0.00105363 max: 0.0776838
DILUPBiCGStab:  Solving for Ux, Initial residual = 0.150308, Final residual = 0.00194256, No Iterations 5
DILUPBiCGStab:  Solving for Uy, Initial residual = 0.356546, Final residual = 0.00233132, No Iterations 5
DILUPBiCGStab:  Solving for Uz, Initial residual = 0.950755, Final residual = 0.0090882, No Iterations 5
linear solve U 12614202
nonePCG:  Solving for p, Initial residual = 0.721476, Final residual = 9.89349e-05, No Iterations 3814
linear solve p 729304298
time step continuity errors : sum local = 2.81364e-10, global = 1.9165e-23, cumulative = -2.8126e-23
nonePCG:  Solving for p, Initial residual = 0.655515, Final residual = 9.81688e-05, No Iterations 3806
linear solve p 728500443
time step continuity errors : sum local = 2.83663e-10, global = -7.06999e-23, cumulative = -9.88259e-23
ExecutionTime = 3017.26 s  ClockTime = 3031 s

Time = 6e-05

Courant Number mean: 0.00160469 max: 0.0884746
DILUPBiCGStab:  Solving for Ux, Initial residual = 0.0624626, Final residual = 0.000556258, No Iterations 5
DILUPBiCGStab:  Solving for Uy, Initial residual = 0.140541, Final residual = 0.000579884, No Iterations 5
DILUPBiCGStab:  Solving for Uz, Initial residual = 0.523756, Final residual = 0.00562301, No Iterations 5
linear solve U 12592592
================================================================================
hash: 1cbde6b297ad8def8f375a69f3b55ac6
/*---------------------------------------------------------------------------*\
| =========                 |                                                 |
| \\      /  F ield         | OpenFOAM: The Open Source CFD Toolbox           |
|  \\    /   O peration     | Version:  2112                                  |
|   \\  /    A nd           | Website:  www.openfoam.com                      |
|    \\/     M anipulation  |                                                 |
\*---------------------------------------------------------------------------*/
Build  : d44c8318f0-20220111 OPENFOAM=2112 version=v2112
Arch   : "LSB;label=32;scalar=64"
Exec   : icoFoam -parallel
Date   : May 17 2022
Time   : 07:48:06
Host   : hkn1250.localdomain
PID    : 3515470
I/O    : uncollated
Case   : /hkfs/home/project/hk-project-test-fine/eq4036/data/code/ogl_labbook/lidDrivenCavity/scaling/Variation_mesh/500/Variation_matrix_solver/CG_NoPrecond_DefaultOF/Variation_mpiRank_of/1216/base
nProcs : 1216
Hosts  :
(
    (hkn1250.localdomain 76)
    (hkn1251.localdomain 76)
    (hkn1252.localdomain 76)
    (hkn1253.localdomain 76)
    (hkn1254.localdomain 76)
    (hkn1256.localdomain 76)
    (hkn1257.localdomain 76)
    (hkn1258.localdomain 76)
    (hkn1259.localdomain 76)
    (hkn1260.localdomain 76)
    (hkn1261.localdomain 76)
    (hkn1262.localdomain 76)
    (hkn1263.localdomain 76)
    (hkn1264.localdomain 76)
    (hkn1265.localdomain 76)
    (hkn1266.localdomain 76)
)
Pstream initialized with:
    floatTransfer      : 0
    nProcsSimpleSum    : 0
    commsType          : nonBlocking
    polling iterations : 0
trapFpe: Floating point exception trapping enabled (FOAM_SIGFPE).
fileModificationChecking : Monitoring run-time modified files using timeStampMaster (fileModificationSkew 5, maxFileModificationPolls 20)
allowSystemOperations : Allowing user-supplied system call operations

// * * * * * * * * * * * * * * * * * * * * * * * * * * * * * * * * * * * * * //
Create time

Create mesh for time = 0


PISO: Operating solver in PISO mode

Reading transportProperties

Reading field p

Reading field U

Reading/calculating face flux field phi


Starting time loop

Time = 2e-05

Courant Number mean: 0 max: 0
DILUPBiCGStab:  Solving for Ux, Initial residual = 1, Final residual = 0.00381806, No Iterations 5
DILUPBiCGStab:  Solving for Uy:  solution singularity
DILUPBiCGStab:  Solving for Uz:  solution singularity
linear solve U 190630
nonePCG:  Solving for p, Initial residual = 1, Final residual = 9.93203e-05, No Iterations 3805
linear solve p 17884164
time step continuity errors : sum local = 1.97213e-10, global = -2.86316e-22, cumulative = -2.86316e-22
nonePCG:  Solving for p, Initial residual = 0.752874, Final residual = 9.89113e-05, No Iterations 3809
linear solve p 17468269
time step continuity errors : sum local = 2.53211e-10, global = -6.0698e-23, cumulative = -3.47014e-22
ExecutionTime = 36.71 s  ClockTime = 37 s

Time = 4e-05

Courant Number mean: 0.00105121 max: 0.0777108
DILUPBiCGStab:  Solving for Ux, Initial residual = 0.1504, Final residual = 0.00287732, No Iterations 5
DILUPBiCGStab:  Solving for Uy, Initial residual = 0.357146, Final residual = 0.00405479, No Iterations 5
DILUPBiCGStab:  Solving for Uz, Initial residual = 0.818591, Final residual = 0.0128741, No Iterations 5
linear solve U 362068
nonePCG:  Solving for p, Initial residual = 0.771357, Final residual = 9.91949e-05, No Iterations 3819
linear solve p 17232566
time step continuity errors : sum local = 3.45673e-10, global = -1.90098e-22, cumulative = -5.37112e-22
nonePCG:  Solving for p, Initial residual = 0.707801, Final residual = 9.89097e-05, No Iterations 3807
linear solve p 16728380
time step continuity errors : sum local = 3.50513e-10, global = -7.59672e-23, cumulative = -6.13079e-22
ExecutionTime = 71.08 s  ClockTime = 72 s

Time = 6e-05

Courant Number mean: 0.00160278 max: 0.0884826
DILUPBiCGStab:  Solving for Ux, Initial residual = 0.062598, Final residual = 0.00088025, No Iterations 5
DILUPBiCGStab:  Solving for Uy, Initial residual = 0.140762, Final residual = 0.00166799, No Iterations 5
DILUPBiCGStab:  Solving for Uz, Initial residual = 0.317413, Final residual = 0.00517895, No Iterations 5
linear solve U 363141
nonePCG:  Solving for p, Initial residual = 0.681504, Final residual = 9.88775e-05, No Iterations 3752
linear solve p 16282069
time step continuity errors : sum local = 2.1771e-10, global = -9.88427e-23, cumulative = -7.11921e-22
nonePCG:  Solving for p, Initial residual = 0.636404, Final residual = 9.96304e-05, No Iterations 3753
linear solve p 16029288
time step continuity errors : sum local = 2.13132e-10, global = -8.1268e-23, cumulative = -7.93189e-22
ExecutionTime = 103.81 s  ClockTime = 105 s

Time = 8e-05

Courant Number mean: 0.00198862 max: 0.0913987
DILUPBiCGStab:  Solving for Ux, Initial residual = 0.041648, Final residual = 0.000421095, No Iterations 5
DILUPBiCGStab:  Solving for Uy, Initial residual = 0.0889652, Final residual = 0.000841606, No Iterations 5
DILUPBiCGStab:  Solving for Uz, Initial residual = 0.165742, Final residual = 0.00231197, No Iterations 5
linear solve U 352671
nonePCG:  Solving for p, Initial residual = 0.483265, Final residual = 9.95387e-05, No Iterations 3683
linear solve p 15718885
time step continuity errors : sum local = 1.7978e-10, global = -8.89978e-23, cumulative = -8.82187e-22
nonePCG:  Solving for p, Initial residual = 0.4246, Final residual = 9.84336e-05, No Iterations 3679
linear solve p 15509582
time step continuity errors : sum local = 1.78816e-10, global = -4.22164e-23, cumulative = -9.24404e-22
ExecutionTime = 135.45 s  ClockTime = 137 s

Time = 0.0001

Courant Number mean: 0.00230248 max: 0.0927941
DILUPBiCGStab:  Solving for Ux, Initial residual = 0.0319326, Final residual = 0.000250745, No Iterations 5
DILUPBiCGStab:  Solving for Uy, Initial residual = 0.0637787, Final residual = 0.000567581, No Iterations 5
DILUPBiCGStab:  Solving for Uz, Initial residual = 0.101054, Final residual = 0.00137892, No Iterations 5
linear solve U 353449
nonePCG:  Solving for p, Initial residual = 0.376752, Final residual = 9.9834e-05, No Iterations 3656
linear solve p 15414094
time step continuity errors : sum local = 1.45109e-10, global = -1.58417e-22, cumulative = -1.08282e-21
nonePCG:  Solving for p, Initial residual = 0.334658, Final residual = 9.96991e-05, No Iterations 3656
linear solve p 15509934
time step continuity errors : sum local = 1.43734e-10, global = -2.17436e-22, cumulative = -1.30026e-21
ExecutionTime = 166.78 s  ClockTime = 168 s

Time = 0.00012

Courant Number mean: 0.0025711 max: 0.0936717
DILUPBiCGStab:  Solving for Ux, Initial residual = 0.0260193, Final residual = 0.000175089, No Iterations 5
DILUPBiCGStab:  Solving for Uy, Initial residual = 0.0501558, Final residual = 0.000297781, No Iterations 5
DILUPBiCGStab:  Solving for Uz, Initial residual = 0.0873217, Final residual = 0.00109332, No Iterations 5
linear solve U 348505
nonePCG:  Solving for p, Initial residual = 0.254879, Final residual = 9.81917e-05, No Iterations 3578
linear solve p 15058071
time step continuity errors : sum local = 1.3363e-10, global = -7.82424e-23, cumulative = -1.3785e-21
nonePCG:  Solving for p, Initial residual = 0.222306, Final residual = 9.92323e-05, No Iterations 3545
linear solve p 14812121
time step continuity errors : sum local = 1.34935e-10, global = -1.06226e-22, cumulative = -1.48472e-21
ExecutionTime = 197.06 s  ClockTime = 199 s

Time = 0.00014

Courant Number mean: 0.0028087 max: 0.0942809
DILUPBiCGStab:  Solving for Ux, Initial residual = 0.0220859, Final residual = 0.000134165, No Iterations 5
DILUPBiCGStab:  Solving for Uy, Initial residual = 0.0411842, Final residual = 0.000231575, No Iterations 5
DILUPBiCGStab:  Solving for Uz, Initial residual = 0.0730116, Final residual = 0.000734595, No Iterations 5
linear solve U 345450
nonePCG:  Solving for p, Initial residual = 0.191138, Final residual = 9.92547e-05, No Iterations 3599
linear solve p 15025129
time step continuity errors : sum local = 1.26799e-10, global = -1.4126e-22, cumulative = -1.62598e-21
nonePCG:  Solving for p, Initial residual = 0.168741, Final residual = 9.95957e-05, No Iterations 3589
linear solve p 14973137
time step continuity errors : sum local = 1.27117e-10, global = -1.51642e-22, cumulative = -1.77763e-21
ExecutionTime = 227.46 s  ClockTime = 229 s

Time = 0.00016

Courant Number mean: 0.00302302 max: 0.0947398
DILUPBiCGStab:  Solving for Ux, Initial residual = 0.0192383, Final residual = 0.000109629, No Iterations 5
DILUPBiCGStab:  Solving for Uy, Initial residual = 0.0349754, Final residual = 0.000165594, No Iterations 5
DILUPBiCGStab:  Solving for Uz, Initial residual = 0.0645699, Final residual = 0.000532635, No Iterations 5
linear solve U 348486
nonePCG:  Solving for p, Initial residual = 0.138026, Final residual = 9.9362e-05, No Iterations 3576
linear solve p 14835141
time step continuity errors : sum local = 1.23069e-10, global = -1.3291e-22, cumulative = -1.91054e-21
nonePCG:  Solving for p, Initial residual = 0.122417, Final residual = 9.97125e-05, No Iterations 3523
linear solve p 14519721
time step continuity errors : sum local = 1.23422e-10, global = -1.06302e-22, cumulative = -2.01684e-21
ExecutionTime = 257.23 s  ClockTime = 259 s

Time = 0.00018

Courant Number mean: 0.0032192 max: 0.0951
DILUPBiCGStab:  Solving for Ux, Initial residual = 0.0170638, Final residual = 9.27153e-05, No Iterations 5
DILUPBiCGStab:  Solving for Uy, Initial residual = 0.0303863, Final residual = 0.000144498, No Iterations 5
DILUPBiCGStab:  Solving for Uz, Initial residual = 0.0574206, Final residual = 0.000423109, No Iterations 5
linear solve U 350341
nonePCG:  Solving for p, Initial residual = 0.110034, Final residual = 9.98502e-05, No Iterations 3509
linear solve p 14563516
time step continuity errors : sum local = 1.20969e-10, global = -1.50461e-22, cumulative = -2.1673e-21
nonePCG:  Solving for p, Initial residual = 0.0989693, Final residual = 9.94239e-05, No Iterations 3504
linear solve p 14638801
time step continuity errors : sum local = 1.2044e-10, global = -9.87553e-23, cumulative = -2.26605e-21
ExecutionTime = 286.86 s  ClockTime = 289 s

Time = 0.0002

Courant Number mean: 0.00340069 max: 0.0953928
DILUPBiCGStab:  Solving for Ux, Initial residual = 0.0153573, Final residual = 8.08434e-05, No Iterations 5
DILUPBiCGStab:  Solving for Uy, Initial residual = 0.0268518, Final residual = 0.000123759, No Iterations 5
DILUPBiCGStab:  Solving for Uz, Initial residual = 0.0519938, Final residual = 0.000349844, No Iterations 5
linear solve U 341009
nonePCG:  Solving for p, Initial residual = 0.0845248, Final residual = 9.98121e-05, No Iterations 3387
linear solve p 14033065
time step continuity errors : sum local = 1.19113e-10, global = -1.8822e-22, cumulative = -2.45427e-21
nonePCG:  Solving for p, Initial residual = 0.0776249, Final residual = 9.97391e-05, No Iterations 3380
linear solve p 13936880
time step continuity errors : sum local = 1.19036e-10, global = -1.90573e-22, cumulative = -2.64485e-21
ExecutionTime = 315.25 s  ClockTime = 318 s

End

Finalising parallel run
================================================================================
hash: 153a2f6f060dfa3d8b762c61bd461cff
/*---------------------------------------------------------------------------*\
| =========                 |                                                 |
| \\      /  F ield         | OpenFOAM: The Open Source CFD Toolbox           |
|  \\    /   O peration     | Version:  2112                                  |
|   \\  /    A nd           | Website:  www.openfoam.com                      |
|    \\/     M anipulation  |                                                 |
\*---------------------------------------------------------------------------*/
Build  : d44c8318f0-20220111 OPENFOAM=2112 version=v2112
Arch   : "LSB;label=32;scalar=64"
Exec   : icoFoam -parallel
Date   : May 17 2022
Time   : 07:48:05
Host   : hkn1037.localdomain
PID    : 2504914
I/O    : uncollated
Case   : /hkfs/home/project/hk-project-test-fine/eq4036/data/code/ogl_labbook/lidDrivenCavity/scaling/Variation_mesh/500/Variation_matrix_solver/CG_NoPrecond_DefaultOF/Variation_mpiRank_of/76/base
nProcs : 76
Hosts  :
(
    (hkn1037.localdomain 76)
)
Pstream initialized with:
    floatTransfer      : 0
    nProcsSimpleSum    : 0
    commsType          : nonBlocking
    polling iterations : 0
trapFpe: Floating point exception trapping enabled (FOAM_SIGFPE).
fileModificationChecking : Monitoring run-time modified files using timeStampMaster (fileModificationSkew 5, maxFileModificationPolls 20)
allowSystemOperations : Allowing user-supplied system call operations

// * * * * * * * * * * * * * * * * * * * * * * * * * * * * * * * * * * * * * //
Create time

Create mesh for time = 0


PISO: Operating solver in PISO mode

Reading transportProperties

Reading field p

Reading field U

Reading/calculating face flux field phi


Starting time loop

Time = 2e-05

Courant Number mean: 0 max: 0
DILUPBiCGStab:  Solving for Ux, Initial residual = 1, Final residual = 0.00302202, No Iterations 5
DILUPBiCGStab:  Solving for Uy:  solution singularity
DILUPBiCGStab:  Solving for Uz:  solution singularity
linear solve U 2963568
nonePCG:  Solving for p, Initial residual = 1, Final residual = 9.87539e-05, No Iterations 3973
linear solve p 379550187
time step continuity errors : sum local = 1.78716e-10, global = -2.63061e-23, cumulative = -2.63061e-23
nonePCG:  Solving for p, Initial residual = 0.741934, Final residual = 9.99875e-05, No Iterations 3935
linear solve p 376369694
time step continuity errors : sum local = 2.37215e-10, global = -1.84362e-23, cumulative = -4.47423e-23
ExecutionTime = 768.46 s  ClockTime = 772 s

Time = 4e-05

Courant Number mean: 0.0010534 max: 0.0776907
DILUPBiCGStab:  Solving for Ux, Initial residual = 0.150318, Final residual = 0.00203771, No Iterations 5
DILUPBiCGStab:  Solving for Uy, Initial residual = 0.3566, Final residual = 0.0025796, No Iterations 5
DILUPBiCGStab:  Solving for Uz, Initial residual = 0.942193, Final residual = 0.0096383, No Iterations 5
linear solve U 6046475
nonePCG:  Solving for p, Initial residual = 0.730484, Final residual = 9.92731e-05, No Iterations 1966
linear solve p 187535380
time step continuity errors : sum local = 3.20462e-10, global = -4.81791e-23, cumulative = -9.29215e-23
nonePCG:  Solving for p, Initial residual = 0.664948, Final residual = 9.9529e-05, No Iterations 1944
linear solve p 185075084
time step continuity errors : sum local = 3.02975e-10, global = -1.00146e-23, cumulative = -1.02936e-22
ExecutionTime = 1150.19 s  ClockTime = 1155 s

Time = 6e-05

Courant Number mean: 0.00160449 max: 0.0884751
DILUPBiCGStab:  Solving for Ux, Initial residual = 0.0624742, Final residual = 0.000604346, No Iterations 5
DILUPBiCGStab:  Solving for Uy, Initial residual = 0.140578, Final residual = 0.000670638, No Iterations 5
DILUPBiCGStab:  Solving for Uz, Initial residual = 0.496064, Final residual = 0.005774, No Iterations 5
linear solve U 6056327
nonePCG:  Solving for p, Initial residual = 0.665796, Final residual = 9.96362e-05, No Iterations 3591
linear solve p 342522836
time step continuity errors : sum local = 2.04475e-10, global = -5.62418e-23, cumulative = -1.59178e-22
nonePCG:  Solving for p, Initial residual = 0.615658, Final residual = 9.98295e-05, No Iterations 3587
linear solve p 342398972
time step continuity errors : sum local = 1.99963e-10, global = -4.97793e-23, cumulative = -2.08957e-22
ExecutionTime = 1843.12 s  ClockTime = 1851 s

Time = 8e-05

Courant Number mean: 0.00199014 max: 0.0913878
DILUPBiCGStab:  Solving for Ux, Initial residual = 0.0415692, Final residual = 0.000305667, No Iterations 5
DILUPBiCGStab:  Solving for Uy, Initial residual = 0.0888845, Final residual = 0.000402199, No Iterations 5
DILUPBiCGStab:  Solving for Uz, Initial residual = 0.169079, Final residual = 0.00162551, No Iterations 5
linear solve U 6050227
nonePCG:  Solving for p, Initial residual = 0.451003, Final residual = 9.87131e-05, No Iterations 1865
linear solve p 177792932
time step continuity errors : sum local = 1.8137e-10, global = -1.5096e-23, cumulative = -2.24053e-22
nonePCG:  Solving for p, Initial residual = 0.390346, Final residual = 9.85036e-05, No Iterations 1828
linear solve p 174350296
time step continuity errors : sum local = 1.71707e-10, global = -2.13645e-23, cumulative = -2.45418e-22
ExecutionTime = 2204.75 s  ClockTime = 2214 s

Time = 0.0001

Courant Number mean: 0.00230393 max: 0.0927853
DILUPBiCGStab:  Solving for Ux, Initial residual = 0.0318725, Final residual = 0.000176598, No Iterations 5
DILUPBiCGStab:  Solving for Uy, Initial residual = 0.0637358, Final residual = 0.000247904, No Iterations 5
DILUPBiCGStab:  Solving for Uz, Initial residual = 0.0997048, Final residual = 0.000976415, No Iterations 5
linear solve U 6051019
nonePCG:  Solving for p, Initial residual = 0.351157, Final residual = 9.8825e-05, No Iterations 1829
linear solve p 175080763
time step continuity errors : sum local = 1.50234e-10, global = -1.34692e-22, cumulative = -3.8011e-22
nonePCG:  Solving for p, Initial residual = 0.306569, Final residual = 9.9525e-05, No Iterations 1791
linear solve p 171606993
time step continuity errors : sum local = 1.38738e-10, global = -1.28121e-22, cumulative = -5.08231e-22
ExecutionTime = 2560.92 s  ClockTime = 2572 s

Time = 0.00012

Courant Number mean: 0.00257248 max: 0.0936628
DILUPBiCGStab:  Solving for Ux, Initial residual = 0.0259749, Final residual = 0.00011368, No Iterations 5
DILUPBiCGStab:  Solving for Uy, Initial residual = 0.0501319, Final residual = 0.000162579, No Iterations 5
DILUPBiCGStab:  Solving for Uz, Initial residual = 0.0881993, Final residual = 0.000882045, No Iterations 5
linear solve U 6057265
nonePCG:  Solving for p, Initial residual = 0.229331, Final residual = 9.91482e-05, No Iterations 3414
linear solve p 327702240
time step continuity errors : sum local = 1.30131e-10, global = -4.0671e-23, cumulative = -5.48902e-22
================================================================================
hash: 67cad1ebbab514937266771a8409d823
/*---------------------------------------------------------------------------*\
| =========                 |                                                 |
| \\      /  F ield         | OpenFOAM: The Open Source CFD Toolbox           |
|  \\    /   O peration     | Version:  2112                                  |
|   \\  /    A nd           | Website:  www.openfoam.com                      |
|    \\/     M anipulation  |                                                 |
\*---------------------------------------------------------------------------*/
Build  : d44c8318f0-20220111 OPENFOAM=2112 version=v2112
Arch   : "LSB;label=32;scalar=64"
Exec   : icoFoam -parallel
Date   : May 17 2022
Time   : 07:48:06
Host   : hkn1109.localdomain
PID    : 2535032
I/O    : uncollated
Case   : /hkfs/home/project/hk-project-test-fine/eq4036/data/code/ogl_labbook/lidDrivenCavity/scaling/Variation_mesh/500/Variation_matrix_solver/CG_NoPrecond_DefaultOF/Variation_mpiRank_of/608/base
nProcs : 608
Hosts  :
(
    (hkn1109.localdomain 76)
    (hkn1110.localdomain 76)
    (hkn1111.localdomain 76)
    (hkn1112.localdomain 76)
    (hkn1113.localdomain 76)
    (hkn1114.localdomain 76)
    (hkn1267.localdomain 76)
    (hkn1268.localdomain 76)
)
Pstream initialized with:
    floatTransfer      : 0
    nProcsSimpleSum    : 0
    commsType          : nonBlocking
    polling iterations : 0
trapFpe: Floating point exception trapping enabled (FOAM_SIGFPE).
fileModificationChecking : Monitoring run-time modified files using timeStampMaster (fileModificationSkew 5, maxFileModificationPolls 20)
allowSystemOperations : Allowing user-supplied system call operations

// * * * * * * * * * * * * * * * * * * * * * * * * * * * * * * * * * * * * * //
Create time

Create mesh for time = 0


PISO: Operating solver in PISO mode

Reading transportProperties

Reading field p

Reading field U

Reading/calculating face flux field phi


Starting time loop

Time = 2e-05

Courant Number mean: 0 max: 0
DILUPBiCGStab:  Solving for Ux, Initial residual = 1, Final residual = 0.00360146, No Iterations 5
DILUPBiCGStab:  Solving for Uy:  solution singularity
DILUPBiCGStab:  Solving for Uz:  solution singularity
linear solve U 415671
nonePCG:  Solving for p, Initial residual = 1, Final residual = 9.93495e-05, No Iterations 3945
linear solve p 46696901
time step continuity errors : sum local = 1.91396e-10, global = 1.90782e-22, cumulative = 1.90782e-22
nonePCG:  Solving for p, Initial residual = 0.749996, Final residual = 9.97611e-05, No Iterations 3926
linear solve p 44854331
time step continuity errors : sum local = 2.4891e-10, global = -2.64506e-23, cumulative = 1.64332e-22
ExecutionTime = 93.7 s  ClockTime = 95 s

Time = 4e-05

Courant Number mean: 0.00105176 max: 0.0777075
DILUPBiCGStab:  Solving for Ux, Initial residual = 0.150378, Final residual = 0.00264043, No Iterations 5
DILUPBiCGStab:  Solving for Uy, Initial residual = 0.357012, Final residual = 0.00355238, No Iterations 5
DILUPBiCGStab:  Solving for Uz, Initial residual = 0.85084, Final residual = 0.0118126, No Iterations 5
linear solve U 737450
nonePCG:  Solving for p, Initial residual = 0.761531, Final residual = 9.88838e-05, No Iterations 3814
linear solve p 44071815
time step continuity errors : sum local = 3.29796e-10, global = -4.37812e-23, cumulative = 1.2055e-22
nonePCG:  Solving for p, Initial residual = 0.697909, Final residual = 9.92953e-05, No Iterations 3806
linear solve p 42918268
time step continuity errors : sum local = 3.36581e-10, global = -1.03924e-22, cumulative = 1.66266e-23
ExecutionTime = 181.5 s  ClockTime = 184 s

Time = 6e-05

Courant Number mean: 0.00160322 max: 0.0884808
DILUPBiCGStab:  Solving for Ux, Initial residual = 0.0625633, Final residual = 0.000808614, No Iterations 5
DILUPBiCGStab:  Solving for Uy, Initial residual = 0.140718, Final residual = 0.00146716, No Iterations 5
DILUPBiCGStab:  Solving for Uz, Initial residual = 0.345807, Final residual = 0.00502298, No Iterations 5
linear solve U 721873
nonePCG:  Solving for p, Initial residual = 0.677606, Final residual = 9.89784e-05, No Iterations 3750
linear solve p 42241170
time step continuity errors : sum local = 2.14204e-10, global = -1.37369e-23, cumulative = 2.88977e-24
nonePCG:  Solving for p, Initial residual = 0.631878, Final residual = 9.8821e-05, No Iterations 3748
linear solve p 42436358
time step continuity errors : sum local = 2.0806e-10, global = -9.44404e-23, cumulative = -9.15507e-23
ExecutionTime = 266.96 s  ClockTime = 270 s

Time = 8e-05

Courant Number mean: 0.00198903 max: 0.091394
DILUPBiCGStab:  Solving for Ux, Initial residual = 0.0416257, Final residual = 0.00038921, No Iterations 5
DILUPBiCGStab:  Solving for Uy, Initial residual = 0.0889479, Final residual = 0.000741137, No Iterations 5
DILUPBiCGStab:  Solving for Uz, Initial residual = 0.163474, Final residual = 0.00206741, No Iterations 5
linear solve U 730646
nonePCG:  Solving for p, Initial residual = 0.475712, Final residual = 9.90869e-05, No Iterations 1863
linear solve p 20871086
time step continuity errors : sum local = 1.90412e-10, global = -4.37589e-23, cumulative = -1.3531e-22
nonePCG:  Solving for p, Initial residual = 0.416874, Final residual = 9.85552e-05, No Iterations 1827
linear solve p 20416680
time step continuity errors : sum local = 1.78553e-10, global = -4.05551e-23, cumulative = -1.75865e-22
ExecutionTime = 309.3 s  ClockTime = 312 s

Time = 0.0001

Courant Number mean: 0.00230289 max: 0.0927888
DILUPBiCGStab:  Solving for Ux, Initial residual = 0.0319121, Final residual = 0.000228415, No Iterations 5
DILUPBiCGStab:  Solving for Uy, Initial residual = 0.0637754, Final residual = 0.000528254, No Iterations 5
DILUPBiCGStab:  Solving for Uz, Initial residual = 0.101592, Final residual = 0.00129851, No Iterations 5
linear solve U 743421
nonePCG:  Solving for p, Initial residual = 0.371369, Final residual = 9.948e-05, No Iterations 1795
linear solve p 20277836
time step continuity errors : sum local = 1.47876e-10, global = -1.48937e-22, cumulative = -3.24801e-22
nonePCG:  Solving for p, Initial residual = 0.328968, Final residual = 9.94362e-05, No Iterations 1786
linear solve p 20142013
time step continuity errors : sum local = 1.42096e-10, global = -8.85626e-23, cumulative = -4.13364e-22
ExecutionTime = 350.78 s  ClockTime = 354 s

Time = 0.00012

Courant Number mean: 0.00257151 max: 0.0936659
DILUPBiCGStab:  Solving for Ux, Initial residual = 0.0260074, Final residual = 0.000154026, No Iterations 5
DILUPBiCGStab:  Solving for Uy, Initial residual = 0.050151, Final residual = 0.00028678, No Iterations 5
DILUPBiCGStab:  Solving for Uz, Initial residual = 0.0856172, Final residual = 0.000959619, No Iterations 5
linear solve U 737832
nonePCG:  Solving for p, Initial residual = 0.248224, Final residual = 9.91028e-05, No Iterations 3546
linear solve p 39759196
time step continuity errors : sum local = 1.33596e-10, global = -1.21343e-22, cumulative = -5.34707e-22
nonePCG:  Solving for p, Initial residual = 0.215603, Final residual = 9.89689e-05, No Iterations 3542
linear solve p 39766894
time step continuity errors : sum local = 1.33305e-10, global = -9.27623e-23, cumulative = -6.27469e-22
ExecutionTime = 431.11 s  ClockTime = 435 s

Time = 0.00014

Courant Number mean: 0.00280911 max: 0.0942783
DILUPBiCGStab:  Solving for Ux, Initial residual = 0.0220751, Final residual = 0.000115946, No Iterations 5
DILUPBiCGStab:  Solving for Uy, Initial residual = 0.0411833, Final residual = 0.000221411, No Iterations 5
DILUPBiCGStab:  Solving for Uz, Initial residual = 0.0708853, Final residual = 0.000655489, No Iterations 5
linear solve U 732199
nonePCG:  Solving for p, Initial residual = 0.185468, Final residual = 9.97122e-05, No Iterations 1651
linear solve p 18828525
time step continuity errors : sum local = 1.28235e-10, global = -1.87133e-22, cumulative = -8.14603e-22
nonePCG:  Solving for p, Initial residual = 0.1629, Final residual = 9.9145e-05, No Iterations 1646
linear solve p 18402385
time step continuity errors : sum local = 1.25635e-10, global = -2.12241e-22, cumulative = -1.02684e-21
ExecutionTime = 469.42 s  ClockTime = 473 s

Time = 0.00016

Courant Number mean: 0.00302343 max: 0.0947375
DILUPBiCGStab:  Solving for Ux, Initial residual = 0.0192286, Final residual = 9.45005e-05, No Iterations 5
DILUPBiCGStab:  Solving for Uy, Initial residual = 0.0349765, Final residual = 0.000152142, No Iterations 5
DILUPBiCGStab:  Solving for Uz, Initial residual = 0.0628581, Final residual = 0.000476317, No Iterations 5
linear solve U 730139
nonePCG:  Solving for p, Initial residual = 0.131848, Final residual = 9.95318e-05, No Iterations 1647
linear solve p 18443567
time step continuity errors : sum local = 1.24592e-10, global = -1.3451e-22, cumulative = -1.16135e-21
nonePCG:  Solving for p, Initial residual = 0.116138, Final residual = 9.98411e-05, No Iterations 1640
linear solve p 18799090
time step continuity errors : sum local = 1.22919e-10, global = -1.01821e-22, cumulative = -1.26317e-21
ExecutionTime = 507.73 s  ClockTime = 512 s

Time = 0.00018

Courant Number mean: 0.00321961 max: 0.095099
DILUPBiCGStab:  Solving for Ux, Initial residual = 0.0170554, Final residual = 7.97723e-05, No Iterations 5
DILUPBiCGStab:  Solving for Uy, Initial residual = 0.0303878, Final residual = 0.000132984, No Iterations 5
DILUPBiCGStab:  Solving for Uz, Initial residual = 0.0557765, Final residual = 0.000392875, No Iterations 5
linear solve U 724633
nonePCG:  Solving for p, Initial residual = 0.104254, Final residual = 9.98797e-05, No Iterations 1620
linear solve p 18454295
time step continuity errors : sum local = 1.2084e-10, global = -1.50588e-22, cumulative = -1.41376e-21
nonePCG:  Solving for p, Initial residual = 0.0930596, Final residual = 9.95857e-05, No Iterations 1616
linear solve p 18208056
time step continuity errors : sum local = 1.19928e-10, global = -1.28467e-22, cumulative = -1.54223e-21
ExecutionTime = 545.46 s  ClockTime = 550 s

Time = 0.0002

Courant Number mean: 0.00340109 max: 0.0953923
DILUPBiCGStab:  Solving for Ux, Initial residual = 0.0153504, Final residual = 6.9545e-05, No Iterations 5
DILUPBiCGStab:  Solving for Uy, Initial residual = 0.0268527, Final residual = 0.000112177, No Iterations 5
DILUPBiCGStab:  Solving for Uz, Initial residual = 0.0501945, Final residual = 0.000311193, No Iterations 5
linear solve U 726037
nonePCG:  Solving for p, Initial residual = 0.078754, Final residual = 9.99199e-05, No Iterations 1608
linear solve p 18153061
time step continuity errors : sum local = 1.20945e-10, global = -1.59787e-22, cumulative = -1.70202e-21
nonePCG:  Solving for p, Initial residual = 0.0717622, Final residual = 9.9464e-05, No Iterations 1602
linear solve p 17998318
time step continuity errors : sum local = 1.18446e-10, global = -9.64512e-23, cumulative = -1.79847e-21
ExecutionTime = 582.68 s  ClockTime = 587 s

End

Finalising parallel run

Finalising parallel run
================================================================================
hash: d4909101444bd4dcdd7ea078ccd4055a
/*---------------------------------------------------------------------------*\
| =========                 |                                                 |
| \\      /  F ield         | OpenFOAM: The Open Source CFD Toolbox           |
|  \\    /   O peration     | Version:  2112                                  |
|   \\  /    A nd           | Website:  www.openfoam.com                      |
[...]


Starting time loop

Time = 0.0001

Courant Number mean: 0 max: 0
DILUPBiCGStab:  Solving for Ux, Initial residual = 1, Final residual = 1.46065e-05, No Iterations 5
DILUPBiCGStab:  Solving for Uy:  solution singularity
DILUPBiCGStab:  Solving for Uz:  solution singularity
linear solve U 13127
nonePCG:  Solving for p, Initial residual = 1, Final residual = 9.62667e-05, No Iterations 756
linear solve p 146513
time step continuity errors : sum local = 1.70126e-09, global = -1.61447e-21, cumulative = -1.61447e-21
nonePCG:  Solving for p, Initial residual = 0.558353, Final residual = 9.69672e-05, No Iterations 746
linear solve p 139852
time step continuity errors : sum local = 2.66057e-09, global = -8.2784e-22, cumulative = -2.44231e-21
ExecutionTime = 0.54 s  ClockTime = 0 s

Time = 0.0002

Courant Number mean: 0.00201331 max: 0.0540371
DILUPBiCGStab:  Solving for Ux, Initial residual = 0.216464, Final residual = 1.09012e-05, No Iterations 5
DILUPBiCGStab:  Solving for Uy, Initial residual = 0.30994, Final residual = 1.07808e-05, No Iterations 5
DILUPBiCGStab:  Solving for Uz, Initial residual = 0.98129, Final residual = 3.21949e-05, No Iterations 5
linear solve U 20682
nonePCG:  Solving for p, Initial residual = 0.381572, Final residual = 9.45721e-05, No Iterations 729
linear solve p 143764
time step continuity errors : sum local = 2.47486e-09, global = -4.46093e-22, cumulative = -2.8884e-21
nonePCG:  Solving for p, Initial residual = 0.284667, Final residual = 9.90004e-05, No Iterations 703
linear solve p 134371
time step continuity errors : sum local = 2.71511e-09, global = -9.31933e-22, cumulative = -3.82033e-21
ExecutionTime = 0.86 s  ClockTime = 1 s

Time = 0.0003

Courant Number mean: 0.00317978 max: 0.0721774
DILUPBiCGStab:  Solving for Ux, Initial residual = 0.0963259, Final residual = 4.20811e-06, No Iterations 5
DILUPBiCGStab:  Solving for Uy, Initial residual = 0.140691, Final residual = 3.582e-06, No Iterations 5
DILUPBiCGStab:  Solving for Uz, Initial residual = 0.205632, Final residual = 8.0416e-06, No Iterations 5
linear solve U 15753
nonePCG:  Solving for p, Initial residual = 0.128522, Final residual = 9.83065e-05, No Iterations 697
linear solve p 129252
time step continuity errors : sum local = 2.317e-09, global = -1.0962e-21, cumulative = -4.91653e-21
nonePCG:  Solving for p, Initial residual = 0.0995971, Final residual = 9.53216e-05, No Iterations 693
linear solve p 131191
time step continuity errors : sum local = 2.27557e-09, global = -1.04813e-21, cumulative = -5.96466e-21
ExecutionTime = 1.16 s  ClockTime = 1 s

Time = 0.0004

Courant Number mean: 0.00397984 max: 0.0793325
DILUPBiCGStab:  Solving for Ux, Initial residual = 0.0593654, Final residual = 1.89773e-06, No Iterations 5
DILUPBiCGStab:  Solving for Uy, Initial residual = 0.0868084, Final residual = 1.9517e-06, No Iterations 5
DILUPBiCGStab:  Solving for Uz, Initial residual = 0.126687, Final residual = 3.93747e-06, No Iterations 5
linear solve U 16185
nonePCG:  Solving for p, Initial residual = 0.0642975, Final residual = 9.89832e-05, No Iterations 681
linear solve p 124780
time step continuity errors : sum local = 2.29535e-09, global = -1.17115e-21, cumulative = -7.13581e-21
nonePCG:  Solving for p, Initial residual = 0.0497415, Final residual = 9.88352e-05, No Iterations 672
linear solve p 125051
time step continuity errors : sum local = 2.32696e-09, global = -1.54274e-21, cumulative = -8.67855e-21
ExecutionTime = 1.44 s  ClockTime = 1 s

Time = 0.0005

Courant Number mean: 0.00460128 max: 0.0828851
DILUPBiCGStab:  Solving for Ux, Initial residual = 0.0428599, Final residual = 1.42116e-06, No Iterations 5
DILUPBiCGStab:  Solving for Uy, Initial residual = 0.0618653, Final residual = 1.32895e-06, No Iterations 5
DILUPBiCGStab:  Solving for Uz, Initial residual = 0.0973511, Final residual = 2.7431e-06, No Iterations 5
linear solve U 15512
nonePCG:  Solving for p, Initial residual = 0.0389641, Final residual = 9.74903e-05, No Iterations 670
linear solve p 123042
time step continuity errors : sum local = 2.29336e-09, global = -4.84204e-22, cumulative = -9.16275e-21
nonePCG:  Solving for p, Initial residual = 0.0306017, Final residual = 9.71421e-05, No Iterations 637
linear solve p 131443
time step continuity errors : sum local = 2.30142e-09, global = -1.43838e-21, cumulative = -1.06011e-20
ExecutionTime = 1.73 s  ClockTime = 2 s

Time = 0.0006

Courant Number mean: 0.00511863 max: 0.0850108
DILUPBiCGStab:  Solving for Ux, Initial residual = 0.0336739, Final residual = 1.05844e-06, No Iterations 5
DILUPBiCGStab:  Solving for Uy, Initial residual = 0.0480392, Final residual = 1.02235e-06, No Iterations 5
DILUPBiCGStab:  Solving for Uz, Initial residual = 0.0800783, Final residual = 1.99798e-06, No Iterations 5
linear solve U 15749
nonePCG:  Solving for p, Initial residual = 0.0268904, Final residual = 9.76965e-05, No Iterations 632
linear solve p 120760
time step continuity errors : sum local = 2.31793e-09, global = -1.47679e-21, cumulative = -1.20779e-20
nonePCG:  Solving for p, Initial residual = 0.0213066, Final residual = 9.28588e-05, No Iterations 627
linear solve p 128985
time step continuity errors : sum local = 2.21507e-09, global = -1.05374e-21, cumulative = -1.31317e-20
ExecutionTime = 2.03 s  ClockTime = 2 s

Time = 0.0007

Courant Number mean: 0.00556496 max: 0.0864549
DILUPBiCGStab:  Solving for Ux, Initial residual = 0.0277685, Final residual = 8.28733e-07, No Iterations 5
DILUPBiCGStab:  Solving for Uy, Initial residual = 0.0392333, Final residual = 8.35441e-07, No Iterations 5
DILUPBiCGStab:  Solving for Uz, Initial residual = 0.0681326, Final residual = 1.54152e-06, No Iterations 5
linear solve U 17556
nonePCG:  Solving for p, Initial residual = 0.0208428, Final residual = 9.6901e-05, No Iterations 627
linear solve p 118862
time step continuity errors : sum local = 2.31659e-09, global = -1.96199e-21, cumulative = -1.50937e-20
nonePCG:  Solving for p, Initial residual = 0.0165938, Final residual = 9.56681e-05, No Iterations 623
linear solve p 120884
time step continuity errors : sum local = 2.29579e-09, global = -1.18162e-21, cumulative = -1.62753e-20
ExecutionTime = 2.3 s  ClockTime = 2 s

Time = 0.0008

Courant Number mean: 0.00596229 max: 0.0875193
DILUPBiCGStab:  Solving for Ux, Initial residual = 0.0236261, Final residual = 6.79512e-07, No Iterations 5
DILUPBiCGStab:  Solving for Uy, Initial residual = 0.0331324, Final residual = 7.0746e-07, No Iterations 5
DILUPBiCGStab:  Solving for Uz, Initial residual = 0.0591217, Final residual = 1.24755e-06, No Iterations 5
linear solve U 16160
nonePCG:  Solving for p, Initial residual = 0.016728, Final residual = 9.08223e-05, No Iterations 625
linear solve p 116710
time step continuity errors : sum local = 2.18438e-09, global = -1.82986e-21, cumulative = -1.81051e-20
nonePCG:  Solving for p, Initial residual = 0.0134205, Final residual = 9.43859e-05, No Iterations 621
linear solve p 119298
time step continuity errors : sum local = 2.27687e-09, global = -1.08525e-21, cumulative = -1.91904e-20
ExecutionTime = 2.58 s  ClockTime = 2 s

Time = 0.0009

Courant Number mean: 0.00631846 max: 0.0883466
DILUPBiCGStab:  Solving for Ux, Initial residual = 0.0205618, Final residual = 5.73044e-07, No Iterations 5
DILUPBiCGStab:  Solving for Uy, Initial residual = 0.0286479, Final residual = 6.13313e-07, No Iterations 5
DILUPBiCGStab:  Solving for Uz, Initial residual = 0.0521853, Final residual = 1.053e-06, No Iterations 5
linear solve U 18339
nonePCG:  Solving for p, Initial residual = 0.0138839, Final residual = 9.99665e-05, No Iterations 622
linear solve p 115262
time step continuity errors : sum local = 2.41608e-09, global = -1.73255e-21, cumulative = -2.09229e-20
nonePCG:  Solving for p, Initial residual = 0.0111946, Final residual = 9.74776e-05, No Iterations 287
linear solve p 53901
time step continuity errors : sum local = 2.77594e-09, global = -2.48921e-21, cumulative = -2.34121e-20
ExecutionTime = 2.78 s  ClockTime = 3 s

Time = 0.001

Courant Number mean: 0.00664436 max: 0.0890141
DILUPBiCGStab:  Solving for Ux, Initial residual = 0.0181805, Final residual = 4.93404e-07, No Iterations 5
DILUPBiCGStab:  Solving for Uy, Initial residual = 0.0252098, Final residual = 5.4123e-07, No Iterations 5
DILUPBiCGStab:  Solving for Uz, Initial residual = 0.0472089, Final residual = 1.04036e-06, No Iterations 5
linear solve U 15979
nonePCG:  Solving for p, Initial residual = 0.0119386, Final residual = 9.60701e-05, No Iterations 286
linear solve p 53257
time step continuity errors : sum local = 2.58731e-09, global = -1.78452e-21, cumulative = -2.51967e-20
nonePCG:  Solving for p, Initial residual = 0.00965421, Final residual = 9.66273e-05, No Iterations 285
linear solve p 54394
time step continuity errors : sum local = 2.76463e-09, global = -1.13741e-21, cumulative = -2.63341e-20
ExecutionTime = 2.93 s  ClockTime = 3 s

End

Finalising parallel run
================================================================================
hash: acfc07592b55be7605cb1302e882b948
/*---------------------------------------------------------------------------*\
| =========                 |                                                 |
| \\      /  F ield         | OpenFOAM: The Open Source CFD Toolbox           |
|  \\    /   O peration     | Version:  2112                                  |
|   \\  /    A nd           | Website:  www.openfoam.com                      |
|    \\/     M anipulation  |                                                 |
\*---------------------------------------------------------------------------*/
Build  : d44c8318f0-20220111 OPENFOAM=2112 version=v2112
Arch   : "LSB;label=32;scalar=64"
Exec   : icoFoam -parallel
Date   : May 16 2022
Time   : 21:01:03
Host   : hkn1213.localdomain
PID    : 2635092
I/O    : uncollated
Case   : /hkfs/home/project/hk-project-test-fine/eq4036/data/code/ogl_labbook/lidDrivenCavity/scaling/Variation_mesh/100/Variation_matrix_solver/CG_NoPrecond_DefaultOF/Variation_mpiRank_of/608/base
nProcs : 608
Hosts  :
(
    (hkn1213.localdomain 76)
    (hkn1214.localdomain 76)
    (hkn1215.localdomain 76)
    (hkn1216.localdomain 76)
    (hkn1217.localdomain 76)
    (hkn1218.localdomain 76)
    (hkn1219.localdomain 76)
    (hkn1220.localdomain 76)
)
Pstream initialized with:
    floatTransfer      : 0
    nProcsSimpleSum    : 0
    commsType          : nonBlocking
    polling iterations : 0
trapFpe: Floating point exception trapping enabled (FOAM_SIGFPE).
fileModificationChecking : Monitoring run-time modified files using timeStampMaster (fileModificationSkew 5, maxFileModificationPolls 20)
allowSystemOperations : Allowing user-supplied system call operations

// * * * * * * * * * * * * * * * * * * * * * * * * * * * * * * * * * * * * * //
Create time

Create mesh for time = 0


PISO: Operating solver in PISO mode

Reading transportProperties

Reading field p

Reading field U

Reading/calculating face flux field phi


Starting time loop

Time = 0.0001

Courant Number mean: 0 max: 0
DILUPBiCGStab:  Solving for Ux, Initial residual = 1, Final residual = 3.11668e-05, No Iterations 5
DILUPBiCGStab:  Solving for Uy:  solution singularity
DILUPBiCGStab:  Solving for Uz:  solution singularity
linear solve U 4853
nonePCG:  Solving for p, Initial residual = 1, Final residual = 9.83568e-05, No Iterations 758
linear solve p 69988
time step continuity errors : sum local = 1.73828e-09, global = -2.07581e-22, cumulative = -2.07581e-22
nonePCG:  Solving for p, Initial residual = 0.554991, Final residual = 9.16098e-05, No Iterations 749
linear solve p 65372
time step continuity errors : sum local = 2.52878e-09, global = -1.50788e-21, cumulative = -1.71546e-21
ExecutionTime = 1.57 s  ClockTime = 118 s

Time = 0.0002

Courant Number mean: 0.0020133 max: 0.0540371
DILUPBiCGStab:  Solving for Ux, Initial residual = 0.216464, Final residual = 2.16275e-05, No Iterations 5
DILUPBiCGStab:  Solving for Uy, Initial residual = 0.309945, Final residual = 1.84798e-05, No Iterations 5
DILUPBiCGStab:  Solving for Uz, Initial residual = 0.981234, Final residual = 7.93976e-05, No Iterations 5
linear solve U 4302
nonePCG:  Solving for p, Initial residual = 0.381191, Final residual = 9.65157e-05, No Iterations 736
linear solve p 64673
time step continuity errors : sum local = 2.52842e-09, global = -1.97486e-21, cumulative = -3.69032e-21
nonePCG:  Solving for p, Initial residual = 0.284253, Final residual = 9.53305e-05, No Iterations 730
linear solve p 64965
time step continuity errors : sum local = 2.61845e-09, global = -1.30793e-21, cumulative = -4.99825e-21
ExecutionTime = 1.7 s  ClockTime = 118 s

Time = 0.0003

Courant Number mean: 0.00317977 max: 0.0721774
DILUPBiCGStab:  Solving for Ux, Initial residual = 0.0963257, Final residual = 9.4789e-06, No Iterations 5
DILUPBiCGStab:  Solving for Uy, Initial residual = 0.140691, Final residual = 6.48449e-06, No Iterations 5
DILUPBiCGStab:  Solving for Uz, Initial residual = 0.205473, Final residual = 1.83944e-05, No Iterations 5
linear solve U 5339
nonePCG:  Solving for p, Initial residual = 0.128453, Final residual = 9.77401e-05, No Iterations 698
linear solve p 59033
time step continuity errors : sum local = 2.30559e-09, global = -2.0419e-21, cumulative = -7.04015e-21
nonePCG:  Solving for p, Initial residual = 0.0995683, Final residual = 9.69201e-05, No Iterations 693
linear solve p 55105
time step continuity errors : sum local = 2.31475e-09, global = -1.77144e-21, cumulative = -8.8116e-21
ExecutionTime = 1.84 s  ClockTime = 118 s

Time = 0.0004

Courant Number mean: 0.00397983 max: 0.0793326
DILUPBiCGStab:  Solving for Ux, Initial residual = 0.0593655, Final residual = 4.81771e-06, No Iterations 5
DILUPBiCGStab:  Solving for Uy, Initial residual = 0.0868088, Final residual = 3.57182e-06, No Iterations 5
DILUPBiCGStab:  Solving for Uz, Initial residual = 0.126418, Final residual = 8.69972e-06, No Iterations 5
linear solve U 4064
nonePCG:  Solving for p, Initial residual = 0.0642633, Final residual = 9.62456e-05, No Iterations 690
linear solve p 52435
time step continuity errors : sum local = 2.23314e-09, global = -2.1136e-21, cumulative = -1.09252e-20
nonePCG:  Solving for p, Initial residual = 0.0497523, Final residual = 9.80057e-05, No Iterations 684
linear solve p 52384
time step continuity errors : sum local = 2.30743e-09, global = -2.50682e-21, cumulative = -1.3432e-20
ExecutionTime = 1.95 s  ClockTime = 118 s

Time = 0.0005

Courant Number mean: 0.00460128 max: 0.0828851
DILUPBiCGStab:  Solving for Ux, Initial residual = 0.0428602, Final residual = 2.95797e-06, No Iterations 5
DILUPBiCGStab:  Solving for Uy, Initial residual = 0.0618651, Final residual = 2.35373e-06, No Iterations 5
DILUPBiCGStab:  Solving for Uz, Initial residual = 0.0970116, Final residual = 5.7709e-06, No Iterations 5
linear solve U 4329
nonePCG:  Solving for p, Initial residual = 0.0389312, Final residual = 9.46315e-05, No Iterations 682
linear solve p 52326
time step continuity errors : sum local = 2.22712e-09, global = -2.19287e-21, cumulative = -1.56249e-20
nonePCG:  Solving for p, Initial residual = 0.0305745, Final residual = 9.67035e-05, No Iterations 676
linear solve p 54517
time step continuity errors : sum local = 2.29112e-09, global = -2.41331e-21, cumulative = -1.80382e-20
ExecutionTime = 2.06 s  ClockTime = 118 s

Time = 0.0006

Courant Number mean: 0.00511862 max: 0.0850108
DILUPBiCGStab:  Solving for Ux, Initial residual = 0.033674, Final residual = 1.99964e-06, No Iterations 5
DILUPBiCGStab:  Solving for Uy, Initial residual = 0.0480393, Final residual = 1.74293e-06, No Iterations 5
DILUPBiCGStab:  Solving for Uz, Initial residual = 0.0794123, Final residual = 4.07748e-06, No Iterations 5
linear solve U 4159
nonePCG:  Solving for p, Initial residual = 0.0268745, Final residual = 9.96502e-05, No Iterations 675
linear solve p 56437
time step continuity errors : sum local = 2.36505e-09, global = -3.02213e-21, cumulative = -2.10603e-20
nonePCG:  Solving for p, Initial residual = 0.0213167, Final residual = 9.80433e-05, No Iterations 670
linear solve p 51868
time step continuity errors : sum local = 2.33905e-09, global = -1.58801e-21, cumulative = -2.26483e-20
ExecutionTime = 2.18 s  ClockTime = 118 s

Time = 0.0007

Courant Number mean: 0.00556495 max: 0.086455
DILUPBiCGStab:  Solving for Ux, Initial residual = 0.0277686, Final residual = 1.50798e-06, No Iterations 5
DILUPBiCGStab:  Solving for Uy, Initial residual = 0.0392332, Final residual = 1.38568e-06, No Iterations 5
DILUPBiCGStab:  Solving for Uz, Initial residual = 0.067452, Final residual = 3.07975e-06, No Iterations 5
linear solve U 4464
nonePCG:  Solving for p, Initial residual = 0.0208168, Final residual = 9.3133e-05, No Iterations 672
linear solve p 58928
time step continuity errors : sum local = 2.22717e-09, global = -3.57914e-21, cumulative = -2.62275e-20
nonePCG:  Solving for p, Initial residual = 0.0165785, Final residual = 9.89147e-05, No Iterations 666
linear solve p 50623
time step continuity errors : sum local = 2.37413e-09, global = -3.02036e-21, cumulative = -2.92478e-20
ExecutionTime = 2.3 s  ClockTime = 118 s

Time = 0.0008

Courant Number mean: 0.00596227 max: 0.0875193
DILUPBiCGStab:  Solving for Ux, Initial residual = 0.0236263, Final residual = 1.20772e-06, No Iterations 5
DILUPBiCGStab:  Solving for Uy, Initial residual = 0.0331323, Final residual = 1.14878e-06, No Iterations 5
DILUPBiCGStab:  Solving for Uz, Initial residual = 0.058687, Final residual = 2.46509e-06, No Iterations 5
linear solve U 3980
nonePCG:  Solving for p, Initial residual = 0.0166852, Final residual = 9.66095e-05, No Iterations 669
linear solve p 49454
time step continuity errors : sum local = 2.32422e-09, global = -4.09107e-21, cumulative = -3.33389e-20
nonePCG:  Solving for p, Initial residual = 0.0133864, Final residual = 9.79394e-05, No Iterations 663
linear solve p 48899
time step continuity errors : sum local = 2.36306e-09, global = -2.42434e-21, cumulative = -3.57632e-20
ExecutionTime = 2.4 s  ClockTime = 119 s

Time = 0.0009

Courant Number mean: 0.00631845 max: 0.0883466
DILUPBiCGStab:  Solving for Ux, Initial residual = 0.0205619, Final residual = 1.00413e-06, No Iterations 5
DILUPBiCGStab:  Solving for Uy, Initial residual = 0.0286478, Final residual = 9.8069e-07, No Iterations 5
DILUPBiCGStab:  Solving for Uz, Initial residual = 0.0518952, Final residual = 2.05782e-06, No Iterations 5
linear solve U 3744
nonePCG:  Solving for p, Initial residual = 0.0138783, Final residual = 9.99435e-05, No Iterations 665
linear solve p 54853
time step continuity errors : sum local = 2.41631e-09, global = -2.60552e-21, cumulative = -3.83688e-20
nonePCG:  Solving for p, Initial residual = 0.0111908, Final residual = 9.91832e-05, No Iterations 660
linear solve p 48402
time step continuity errors : sum local = 2.40347e-09, global = -3.54072e-21, cumulative = -4.19095e-20
ExecutionTime = 2.51 s  ClockTime = 119 s

Time = 0.001

Courant Number mean: 0.00664435 max: 0.089014
DILUPBiCGStab:  Solving for Ux, Initial residual = 0.0181856, Final residual = 8.57784e-07, No Iterations 5
DILUPBiCGStab:  Solving for Uy, Initial residual = 0.0252109, Final residual = 8.54879e-07, No Iterations 5
DILUPBiCGStab:  Solving for Uz, Initial residual = 0.0464531, Final residual = 1.76939e-06, No Iterations 5
linear solve U 3743
nonePCG:  Solving for p, Initial residual = 0.011868, Final residual = 9.4953e-05, No Iterations 664
linear solve p 49227
time step continuity errors : sum local = 2.30517e-09, global = -3.1664e-21, cumulative = -4.50759e-20
nonePCG:  Solving for p, Initial residual = 0.00959819, Final residual = 9.946e-05, No Iterations 658
linear solve p 48484
time step continuity errors : sum local = 2.41918e-09, global = -4.46755e-21, cumulative = -4.95434e-20
ExecutionTime = 2.61 s  ClockTime = 119 s

End

Finalising parallel run
================================================================================
