hash: 5dcaa70fbf06f01e6d8f67f6551e783e
/*---------------------------------------------------------------------------*\
| =========                 |                                                 |
| \\      /  F ield         | OpenFOAM: The Open Source CFD Toolbox           |
|  \\    /   O peration     | Version:  v2106                                 |
|   \\  /    A nd           | Website:  www.openfoam.com                      |
|    \\/     M anipulation  |                                                 |
\*---------------------------------------------------------------------------*/
Build  : f815a12bba-20210902 OPENFOAM=2106
Arch   : "LSB;label=32;scalar=64"
Exec   : icoFoam -parallel
Date   : Jan 26 2022
Time   : 23:12:53
Host   : nla-gpu2.ianm.kit.edu
PID    : 2854732
I/O    : uncollated
Case   : /home/greole/data/code/ogl_labbook/lidDrivenCavity3D/solver/Variation_mesh/400/Variation_matrix_solver/BiCGStab_NoPrecond_HIP/Variation_mpiRank/16/base
nProcs : 16
Hosts  :
(
    (nla-gpu2.ianm.kit.edu 16)
)
Pstream initialized with:
    floatTransfer      : 0
    nProcsSimpleSum    : 0
    commsType          : nonBlocking
    polling iterations : 0
trapFpe: Floating point exception trapping enabled (FOAM_SIGFPE).
fileModificationChecking : Monitoring run-time modified files using timeStampMaster (fileModificationSkew 5, maxFileModificationPolls 20)
allowSystemOperations : Allowing user-supplied system call operations

// * * * * * * * * * * * * * * * * * * * * * * * * * * * * * * * * * * * * * //
Create time

Create mesh for time = 0


PISO: Operating solver in PISO mode

Reading transportProperties

Reading field p

Reading field U

Reading/calculating face flux field phi


Starting time loop

Time = 0.00025

Courant Number mean: 0 max: 0
DILUPBiCGStab:  Solving for Ux, Initial residual = 1, Final residual = 0.0338351, No Iterations 5
DILUPBiCGStab:  Solving for Uy:  solution singularity
DILUPBiCGStab:  Solving for Uz:  solution singularity
linear solve U 2133902
[OGL LOG][Proc: 0]global_index_init : 40377 mu s
[OGL LOG][Proc: 0]global_index_init : 4 mu s
[OGL LOG][Proc: 0]global_index_init : 3 mu s
[OGL LOG][Proc: 0]global_index_init : 5 mu s
[OGL LOG][Proc: 0]init_host_sparsity_pattern : 264390655 mu s
[OGL LOG][Proc: 0]update_host_matrix_data : 126128 mu s
[OGL LOG][Proc: 0]convert_coo_to_csr : 161045 mu s
[OGL LOG][Proc: 0][DevicePersistentArray.H:231] !!!! check if global dense vector p_solution_global is stored
 is stored 0 foo1[OGL LOG][Proc: 0][DevicePersistentArray.H:257] Store global dense vector p_solution_global 
[OGL LOG][Proc: 0]gather_initGuess : 1451711 mu s
[OGL LOG][Proc: 0][DevicePersistentArray.H:231] !!!! check if global dense vector p_rhs_global is stored
 is stored 0 foo1[OGL LOG][Proc: 0]gather_RHS : 391451 mu s
[OGL LOG][Proc: 0]gather_global_matrix : 0 mu s
[OGL LOG][Proc: 0]init_precond : 18 mu s
[OGL LOG][Proc: 0]generate_solver : 21 mu s
[OGL LOG][Proc: 0]solve : 400281394 mu s
[OGL LOG][Proc: 0]retrieve_result_from_device : 389697 mu s
nonehipGKOBiCGStab:  Solving for p, Initial residual = 1, Final residual = 8.50435e-07, No Iterations 3452
linear solve p 864063521
time step continuity errors : sum local = 1.39863e-05, global = 3.61474e-20, cumulative = 3.61474e-20
[OGL LOG][Proc: 0]global_index_init : 270 mu s
[OGL LOG][Proc: 0]global_index_init : 4 mu s
[OGL LOG][Proc: 0]global_index_init : 7 mu s
[OGL LOG][Proc: 0]global_index_init : 6 mu s
[OGL LOG][Proc: 0]update_host_matrix_data : 116646 mu s
[OGL LOG][Proc: 0][DevicePersistentArray.H:231] !!!! check if global dense vector p_solution_global is stored
 is stored 1 foo1[OGL LOG][Proc: 0][DevicePersistentArray.H:237] global dense vector p_solution_global stored, retrieving from object registry
[OGL LOG][Proc: 0]gather_initGuess : 30 mu s
[OGL LOG][Proc: 0][DevicePersistentArray.H:231] !!!! check if global dense vector p_rhs_global is stored
 is stored 0 foo1[OGL LOG][Proc: 0]gather_RHS : 304423 mu s
[OGL LOG][Proc: 0]gather_global_matrix : 0 mu s
[OGL LOG][Proc: 0]init_precond : 5 mu s
[OGL LOG][Proc: 0]generate_solver : 1 mu s
[OGL LOG][Proc: 0]solve : 352855561 mu s
[OGL LOG][Proc: 0]retrieve_result_from_device : 466452 mu s
nonehipGKOBiCGStab:  Solving for p, Initial residual = 0.870898, Final residual = 3.63563e-07, No Iterations 3312
linear solve p 353786801
time step continuity errors : sum local = 4.45965e-11, global = -3.58822e-24, cumulative = 3.61438e-20
ExecutionTime = 1246.65 s  ClockTime = 1241 s

Time = 0.0005

Courant Number mean: 0.0248806 max: 0.904423
DILUPBiCGStab:  Solving for Ux, Initial residual = 0.098475, Final residual = 0.0230761, No Iterations 5
DILUPBiCGStab:  Solving for Uy, Initial residual = 0.575832, Final residual = 0.130592, No Iterations 5
DILUPBiCGStab:  Solving for Uz, Initial residual = 0.910617, Final residual = 0.241897, No Iterations 5
linear solve U 4194668
[OGL LOG][Proc: 0]global_index_init : 241 mu s
[OGL LOG][Proc: 0]global_index_init : 5 mu s
[OGL LOG][Proc: 0]global_index_init : 6 mu s
[OGL LOG][Proc: 0]global_index_init : 6 mu s
[OGL LOG][Proc: 0]update_host_matrix_data : 116033 mu s
[OGL LOG][Proc: 0][DevicePersistentArray.H:231] !!!! check if global dense vector p_solution_global is stored
 is stored 1 foo1[OGL LOG][Proc: 0][DevicePersistentArray.H:237] global dense vector p_solution_global stored, retrieving from object registry
[OGL LOG][Proc: 0]gather_initGuess : 24 mu s
[OGL LOG][Proc: 0][DevicePersistentArray.H:231] !!!! check if global dense vector p_rhs_global is stored
 is stored 0 foo1[OGL LOG][Proc: 0]gather_RHS : 311281 mu s
[OGL LOG][Proc: 0]gather_global_matrix : 0 mu s
[OGL LOG][Proc: 0]init_precond : 6 mu s
[OGL LOG][Proc: 0]generate_solver : 2 mu s
[OGL LOG][Proc: 0]solve : 454718886 mu s
[OGL LOG][Proc: 0]retrieve_result_from_device : 299737 mu s
nonehipGKOBiCGStab:  Solving for p, Initial residual = 0.959521, Final residual = 9.38778e-07, No Iterations 4422
linear solve p 455493785
time step continuity errors : sum local = 3.76257e-10, global = -3.10219e-22, cumulative = 3.58336e-20
[OGL LOG][Proc: 0]global_index_init : 276 mu s
[OGL LOG][Proc: 0]global_index_init : 4 mu s
[OGL LOG][Proc: 0]global_index_init : 6 mu s
[OGL LOG][Proc: 0]global_index_init : 7 mu s
[OGL LOG][Proc: 0]update_host_matrix_data : 110377 mu s
[OGL LOG][Proc: 0][DevicePersistentArray.H:231] !!!! check if global dense vector p_solution_global is stored
 is stored 1 foo1[OGL LOG][Proc: 0][DevicePersistentArray.H:237] global dense vector p_solution_global stored, retrieving from object registry
[OGL LOG][Proc: 0]gather_initGuess : 24 mu s
[OGL LOG][Proc: 0][DevicePersistentArray.H:231] !!!! check if global dense vector p_rhs_global is stored
 is stored 0 foo1[OGL LOG][Proc: 0]gather_RHS : 181361 mu s
[OGL LOG][Proc: 0]gather_global_matrix : 1 mu s
[OGL LOG][Proc: 0]init_precond : 6 mu s
[OGL LOG][Proc: 0]generate_solver : 2 mu s
[OGL LOG][Proc: 0]solve : 453673990 mu s
[OGL LOG][Proc: 0]retrieve_result_from_device : 143174 mu s
nonehipGKOBiCGStab:  Solving for p, Initial residual = 0.911148, Final residual = 4.21088e-07, No Iterations 4400
linear solve p 454183275
time step continuity errors : sum local = 1.61045e-10, global = -1.95137e-22, cumulative = 3.56385e-20
ExecutionTime = 2170.62 s  ClockTime = 2158 s

Time = 0.00075

Courant Number mean: 0.0403739 max: 1.11017
DILUPBiCGStab:  Solving for Ux, Initial residual = 0.064036, Final residual = 0.0121768, No Iterations 5
DILUPBiCGStab:  Solving for Uy, Initial residual = 0.451393, Final residual = 0.0619337, No Iterations 5
DILUPBiCGStab:  Solving for Uz, Initial residual = 0.860755, Final residual = 0.151341, No Iterations 5
linear solve U 4133685
[OGL LOG][Proc: 0]global_index_init : 441 mu s
[OGL LOG][Proc: 0]global_index_init : 5 mu s
[OGL LOG][Proc: 0]global_index_init : 6 mu s
[OGL LOG][Proc: 0]global_index_init : 6 mu s
[OGL LOG][Proc: 0]update_host_matrix_data : 115732 mu s
[OGL LOG][Proc: 0][DevicePersistentArray.H:231] !!!! check if global dense vector p_solution_global is stored
 is stored 1 foo1[OGL LOG][Proc: 0][DevicePersistentArray.H:237] global dense vector p_solution_global stored, retrieving from object registry
[OGL LOG][Proc: 0]gather_initGuess : 33 mu s
[OGL LOG][Proc: 0][DevicePersistentArray.H:231] !!!! check if global dense vector p_rhs_global is stored
 is stored 0 foo1[OGL LOG][Proc: 0]gather_RHS : 177332 mu s
[OGL LOG][Proc: 0]gather_global_matrix : 0 mu s
[OGL LOG][Proc: 0]init_precond : 5 mu s
[OGL LOG][Proc: 0]generate_solver : 1 mu s
[OGL LOG][Proc: 0]solve : 325220875 mu s
[OGL LOG][Proc: 0]retrieve_result_from_device : 275975 mu s
nonehipGKOBiCGStab:  Solving for p, Initial residual = 0.975936, Final residual = 2.36745e-07, No Iterations 3168
linear solve p 325876751
time step continuity errors : sum local = 2.31386e-10, global = 4.75564e-22, cumulative = 3.6114e-20
[OGL LOG][Proc: 0]global_index_init : 275 mu s
[OGL LOG][Proc: 0]global_index_init : 6 mu s
[OGL LOG][Proc: 0]global_index_init : 5 mu s
[OGL LOG][Proc: 0]global_index_init : 7 mu s
[OGL LOG][Proc: 0]update_host_matrix_data : 107537 mu s
[OGL LOG][Proc: 0][DevicePersistentArray.H:231] !!!! check if global dense vector p_solution_global is stored
 is stored 1 foo1[OGL LOG][Proc: 0][DevicePersistentArray.H:237] global dense vector p_solution_global stored, retrieving from object registry
[OGL LOG][Proc: 0]gather_initGuess : 24 mu s
[OGL LOG][Proc: 0][DevicePersistentArray.H:231] !!!! check if global dense vector p_rhs_global is stored
 is stored 0 foo1[OGL LOG][Proc: 0]gather_RHS : 179725 mu s
[OGL LOG][Proc: 0]gather_global_matrix : 1 mu s
[OGL LOG][Proc: 0]init_precond : 6 mu s
[OGL LOG][Proc: 0]generate_solver : 2 mu s
[OGL LOG][Proc: 0]solve : 484681248 mu s
[OGL LOG][Proc: 0]retrieve_result_from_device : 277438 mu s
nonehipGKOBiCGStab:  Solving for p, Initial residual = 0.934481, Final residual = 7.3803e-07, No Iterations 4536
linear solve p 485382746
time step continuity errors : sum local = 7.2353e-10, global = 1.05248e-21, cumulative = 3.71665e-20
ExecutionTime = 2995.28 s  ClockTime = 2977 s

End

Finalising parallel run
 is stored 0 foo1 is stored 0 foo1 is stored 1 foo1 is stored 0 foo1 is stored 1 foo1 is stored 0 foo1 is stored 1 foo1 is stored 0 foo1 is stored 1 foo1 is stored 0 foo1 is stored 1 foo1 is stored 0 foo1 is stored 0 foo1 is stored 0 foo1 is stored 1 foo1 is stored 0 foo1 is stored 1 foo1 is stored 0 foo1 is stored 1 foo1 is stored 0 foo1 is stored 1 foo1 is stored 0 foo1 is stored 1 foo1 is stored 0 foo1 is stored 0 foo1 is stored 0 foo1 is stored 1 foo1 is stored 0 foo1 is stored 1 foo1 is stored 0 foo1 is stored 1 foo1 is stored 0 foo1 is stored 1 foo1 is stored 0 foo1 is stored 1 foo1 is stored 0 foo1 is stored 0 foo1 is stored 0 foo1 is stored 1 foo1 is stored 0 foo1 is stored 1 foo1 is stored 0 foo1 is stored 1 foo1 is stored 0 foo1 is stored 1 foo1 is stored 0 foo1 is stored 1 foo1 is stored 0 foo1 is stored 0 foo1 is stored 0 foo1 is stored 1 foo1 is stored 0 foo1 is stored 1 foo1 is stored 0 foo1 is stored 1 foo1 is stored 0 foo1 is stored 1 foo1 is stored 0 foo1 is stored 1 foo1 is stored 0 foo1 is stored 0 foo1 is stored 0 foo1 is stored 1 foo1 is stored 0 foo1 is stored 1 foo1 is stored 0 foo1 is stored 1 foo1 is stored 0 foo1 is stored 1 foo1 is stored 0 foo1 is stored 1 foo1 is stored 0 foo1 is stored 0 foo1 is stored 0 foo1 is stored 1 foo1 is stored 0 foo1 is stored 1 foo1 is stored 0 foo1 is stored 1 foo1 is stored 0 foo1 is stored 1 foo1 is stored 0 foo1 is stored 1 foo1 is stored 0 foo1 is stored 0 foo1 is stored 0 foo1 is stored 1 foo1 is stored 0 foo1 is stored 1 foo1 is stored 0 foo1 is stored 1 foo1 is stored 0 foo1 is stored 1 foo1 is stored 0 foo1 is stored 1 foo1 is stored 0 foo1 is stored 0 foo1 is stored 0 foo1 is stored 1 foo1 is stored 0 foo1 is stored 1 foo1 is stored 0 foo1 is stored 1 foo1 is stored 0 foo1 is stored 1 foo1 is stored 0 foo1 is stored 1 foo1 is stored 0 foo1 is stored 0 foo1 is stored 0 foo1 is stored 1 foo1 is stored 0 foo1 is stored 1 foo1 is stored 0 foo1 is stored 1 foo1 is stored 0 foo1 is stored 1 foo1 is stored 0 foo1 is stored 1 foo1 is stored 0 foo1 is stored 0 foo1 is stored 0 foo1 is stored 1 foo1 is stored 0 foo1 is stored 1 foo1 is stored 0 foo1 is stored 1 foo1 is stored 0 foo1 is stored 1 foo1 is stored 0 foo1 is stored 1 foo1 is stored 0 foo1 is stored 0 foo1 is stored 0 foo1 is stored 1 foo1 is stored 0 foo1 is stored 1 foo1 is stored 0 foo1 is stored 1 foo1 is stored 0 foo1 is stored 1 foo1 is stored 0 foo1 is stored 1 foo1 is stored 0 foo1 is stored 0 foo1 is stored 0 foo1 is stored 1 foo1 is stored 0 foo1 is stored 1 foo1 is stored 0 foo1 is stored 1 foo1 is stored 0 foo1 is stored 1 foo1 is stored 0 foo1 is stored 1 foo1 is stored 0 foo1 is stored 0 foo1 is stored 0 foo1 is stored 1 foo1 is stored 0 foo1 is stored 1 foo1 is stored 0 foo1 is stored 1 foo1 is stored 0 foo1 is stored 1 foo1 is stored 0 foo1 is stored 1 foo1 is stored 0 foo1 is stored 0 foo1 is stored 0 foo1 is stored 1 foo1 is stored 0 foo1 is stored 1 foo1 is stored 0 foo1 is stored 1 foo1 is stored 0 foo1 is stored 1 foo1 is stored 0 foo1 is stored 1 foo1 is stored 0 foo1================================================================================
hash: 5261ec459b45c8e162b56e5359384bc3
/*---------------------------------------------------------------------------*\
| =========                 |                                                 |
| \\      /  F ield         | OpenFOAM: The Open Source CFD Toolbox           |
|  \\    /   O peration     | Version:  v2106                                 |
|   \\  /    A nd           | Website:  www.openfoam.com                      |
|    \\/     M anipulation  |                                                 |
\*---------------------------------------------------------------------------*/
Build  : f815a12bba-20210902 OPENFOAM=2106
Arch   : "LSB;label=32;scalar=64"
Exec   : icoFoam -parallel
Date   : Jan 27 2022
Time   : 00:02:31
Host   : nla-gpu2.ianm.kit.edu
PID    : 2882099
I/O    : uncollated
Case   : /home/greole/data/code/ogl_labbook/lidDrivenCavity3D/solver/Variation_mesh/400/Variation_matrix_solver/BiCGStab_NoPrecond_HIP/Variation_mpiRank/12/base
nProcs : 12
Hosts  :
(
    (nla-gpu2.ianm.kit.edu 12)
)
Pstream initialized with:
    floatTransfer      : 0
    nProcsSimpleSum    : 0
    commsType          : nonBlocking
    polling iterations : 0
trapFpe: Floating point exception trapping enabled (FOAM_SIGFPE).
fileModificationChecking : Monitoring run-time modified files using timeStampMaster (fileModificationSkew 5, maxFileModificationPolls 20)
allowSystemOperations : Allowing user-supplied system call operations

// * * * * * * * * * * * * * * * * * * * * * * * * * * * * * * * * * * * * * //
Create time

Create mesh for time = 0


PISO: Operating solver in PISO mode

Reading transportProperties

Reading field p

Reading field U

Reading/calculating face flux field phi


Starting time loop

Time = 0.00025

Courant Number mean: 0 max: 0
DILUPBiCGStab:  Solving for Ux, Initial residual = 1, Final residual = 0.0332301, No Iterations 5
DILUPBiCGStab:  Solving for Uy:  solution singularity
DILUPBiCGStab:  Solving for Uz:  solution singularity
linear solve U 2873933
[OGL LOG][Proc: 0]global_index_init : 38375 mu s
[OGL LOG][Proc: 0]global_index_init : 5 mu s
[OGL LOG][Proc: 0]global_index_init : 4 mu s
[OGL LOG][Proc: 0]global_index_init : 4 mu s
[OGL LOG][Proc: 0]init_host_sparsity_pattern : 412473868 mu s
[OGL LOG][Proc: 0]update_host_matrix_data : 162876 mu s
[OGL LOG][Proc: 0]convert_coo_to_csr : 29897 mu s
[OGL LOG][Proc: 0][DevicePersistentArray.H:231] !!!! check if global dense vector p_solution_global is stored
 is stored 0 foo1[OGL LOG][Proc: 0][DevicePersistentArray.H:257] Store global dense vector p_solution_global 
[OGL LOG][Proc: 0]gather_initGuess : 1851536 mu s
[OGL LOG][Proc: 0][DevicePersistentArray.H:231] !!!! check if global dense vector p_rhs_global is stored
 is stored 0 foo1[OGL LOG][Proc: 0]gather_RHS : 154010 mu s
[OGL LOG][Proc: 0]gather_global_matrix : 0 mu s
[OGL LOG][Proc: 0]init_precond : 18 mu s
[OGL LOG][Proc: 0]generate_solver : 24 mu s
[OGL LOG][Proc: 0]solve : 199201598 mu s
[OGL LOG][Proc: 0]retrieve_result_from_device : 190200 mu s
nonehipGKOBiCGStab:  Solving for p, Initial residual = 1, Final residual = 6.48413e-07, No Iterations 3711
linear solve p 949618542
time step continuity errors : sum local = 8.60665e-05, global = 1.94447e-19, cumulative = 1.94447e-19
[OGL LOG][Proc: 0]global_index_init : 902 mu s
[OGL LOG][Proc: 0]global_index_init : 3 mu s
[OGL LOG][Proc: 0]global_index_init : 5 mu s
[OGL LOG][Proc: 0]global_index_init : 5 mu s
[OGL LOG][Proc: 0]update_host_matrix_data : 254398 mu s
[OGL LOG][Proc: 0][DevicePersistentArray.H:231] !!!! check if global dense vector p_solution_global is stored
 is stored 1 foo1[OGL LOG][Proc: 0][DevicePersistentArray.H:237] global dense vector p_solution_global stored, retrieving from object registry
[OGL LOG][Proc: 0]gather_initGuess : 38 mu s
[OGL LOG][Proc: 0][DevicePersistentArray.H:231] !!!! check if global dense vector p_rhs_global is stored
 is stored 0 foo1[OGL LOG][Proc: 0]gather_RHS : 174310 mu s
[OGL LOG][Proc: 0]gather_global_matrix : 1 mu s
[OGL LOG][Proc: 0]init_precond : 7 mu s
[OGL LOG][Proc: 0]generate_solver : 2 mu s
[OGL LOG][Proc: 0]solve : 214533942 mu s
[OGL LOG][Proc: 0]retrieve_result_from_device : 178804 mu s
nonehipGKOBiCGStab:  Solving for p, Initial residual = 0.930291, Final residual = 9.02823e-07, No Iterations 4144
linear solve p 215208477
time step continuity errors : sum local = 2.41336e-10, global = -2.57828e-22, cumulative = 1.94189e-19
ExecutionTime = 1204.03 s  ClockTime = 1197 s

Time = 0.0005

Courant Number mean: 0.0250074 max: 0.904273
DILUPBiCGStab:  Solving for Ux, Initial residual = 0.0982811, Final residual = 0.0226648, No Iterations 5
DILUPBiCGStab:  Solving for Uy, Initial residual = 0.581652, Final residual = 0.128225, No Iterations 5
DILUPBiCGStab:  Solving for Uz, Initial residual = 0.904016, Final residual = 0.157812, No Iterations 5
linear solve U 5638850
[OGL LOG][Proc: 0]global_index_init : 2869 mu s
[OGL LOG][Proc: 0]global_index_init : 5 mu s
[OGL LOG][Proc: 0]global_index_init : 5 mu s
[OGL LOG][Proc: 0]global_index_init : 5 mu s
[OGL LOG][Proc: 0]update_host_matrix_data : 178491 mu s
[OGL LOG][Proc: 0][DevicePersistentArray.H:231] !!!! check if global dense vector p_solution_global is stored
 is stored 1 foo1[OGL LOG][Proc: 0][DevicePersistentArray.H:237] global dense vector p_solution_global stored, retrieving from object registry
[OGL LOG][Proc: 0]gather_initGuess : 26 mu s
[OGL LOG][Proc: 0][DevicePersistentArray.H:231] !!!! check if global dense vector p_rhs_global is stored
 is stored 0 foo1[OGL LOG][Proc: 0]gather_RHS : 156877 mu s
[OGL LOG][Proc: 0]gather_global_matrix : 0 mu s
[OGL LOG][Proc: 0]init_precond : 5 mu s
[OGL LOG][Proc: 0]generate_solver : 2 mu s
[OGL LOG][Proc: 0]solve : 181766519 mu s
[OGL LOG][Proc: 0]retrieve_result_from_device : 172463 mu s
nonehipGKOBiCGStab:  Solving for p, Initial residual = 0.944116, Final residual = 7.51217e-07, No Iterations 3548
linear solve p 182343644
time step continuity errors : sum local = 7.29897e-05, global = 8.47562e-20, cumulative = 2.78945e-19
[OGL LOG][Proc: 0]global_index_init : 3293 mu s
[OGL LOG][Proc: 0]global_index_init : 4 mu s
[OGL LOG][Proc: 0]global_index_init : 5 mu s
[OGL LOG][Proc: 0]global_index_init : 5 mu s
[OGL LOG][Proc: 0]update_host_matrix_data : 158684 mu s
[OGL LOG][Proc: 0][DevicePersistentArray.H:231] !!!! check if global dense vector p_solution_global is stored
 is stored 1 foo1[OGL LOG][Proc: 0][DevicePersistentArray.H:237] global dense vector p_solution_global stored, retrieving from object registry
[OGL LOG][Proc: 0]gather_initGuess : 30 mu s
[OGL LOG][Proc: 0][DevicePersistentArray.H:231] !!!! check if global dense vector p_rhs_global is stored
 is stored 0 foo1[OGL LOG][Proc: 0]gather_RHS : 157194 mu s
[OGL LOG][Proc: 0]gather_global_matrix : 0 mu s
[OGL LOG][Proc: 0]init_precond : 5 mu s
[OGL LOG][Proc: 0]generate_solver : 2 mu s
[OGL LOG][Proc: 0]solve : 345071073 mu s
[OGL LOG][Proc: 0]retrieve_result_from_device : 207375 mu s
nonehipGKOBiCGStab:  Solving for p, Initial residual = 0.897592, Final residual = 8.19909e-07, No Iterations 6698
linear solve p 345664418
time step continuity errors : sum local = 1.87842e-06, global = 2.44975e-22, cumulative = 2.7919e-19
ExecutionTime = 1751.29 s  ClockTime = 1735 s

Time = 0.00075

Courant Number mean: 0.040435 max: 1.14054
DILUPBiCGStab:  Solving for Ux, Initial residual = 0.0639939, Final residual = 0.0121226, No Iterations 5
DILUPBiCGStab:  Solving for Uy, Initial residual = 0.463684, Final residual = 0.0613034, No Iterations 5
DILUPBiCGStab:  Solving for Uz, Initial residual = 0.881938, Final residual = 0.135408, No Iterations 5
linear solve U 5534865
[OGL LOG][Proc: 0]global_index_init : 3270 mu s
[OGL LOG][Proc: 0]global_index_init : 6 mu s
[OGL LOG][Proc: 0]global_index_init : 5 mu s
[OGL LOG][Proc: 0]global_index_init : 6 mu s
[OGL LOG][Proc: 0]update_host_matrix_data : 157780 mu s
[OGL LOG][Proc: 0][DevicePersistentArray.H:231] !!!! check if global dense vector p_solution_global is stored
 is stored 1 foo1[OGL LOG][Proc: 0][DevicePersistentArray.H:237] global dense vector p_solution_global stored, retrieving from object registry
[OGL LOG][Proc: 0]gather_initGuess : 31 mu s
[OGL LOG][Proc: 0][DevicePersistentArray.H:231] !!!! check if global dense vector p_rhs_global is stored
 is stored 0 foo1[OGL LOG][Proc: 0]gather_RHS : 167206 mu s
[OGL LOG][Proc: 0]gather_global_matrix : 0 mu s
[OGL LOG][Proc: 0]init_precond : 6 mu s
[OGL LOG][Proc: 0]generate_solver : 3 mu s
[OGL LOG][Proc: 0]solve : 179150054 mu s
[OGL LOG][Proc: 0]retrieve_result_from_device : 210058 mu s
nonehipGKOBiCGStab:  Solving for p, Initial residual = 0.964532, Final residual = 2.67597e-07, No Iterations 3471
linear solve p 179758633
time step continuity errors : sum local = 2.67644e-10, global = -6.50196e-22, cumulative = 2.7854e-19
[OGL LOG][Proc: 0]global_index_init : 2971 mu s
[OGL LOG][Proc: 0]global_index_init : 4 mu s
[OGL LOG][Proc: 0]global_index_init : 5 mu s
[OGL LOG][Proc: 0]global_index_init : 5 mu s
[OGL LOG][Proc: 0]update_host_matrix_data : 158091 mu s
[OGL LOG][Proc: 0][DevicePersistentArray.H:231] !!!! check if global dense vector p_solution_global is stored
 is stored 1 foo1[OGL LOG][Proc: 0][DevicePersistentArray.H:237] global dense vector p_solution_global stored, retrieving from object registry
[OGL LOG][Proc: 0]gather_initGuess : 27 mu s
[OGL LOG][Proc: 0][DevicePersistentArray.H:231] !!!! check if global dense vector p_rhs_global is stored
 is stored 0 foo1[OGL LOG][Proc: 0]gather_RHS : 160727 mu s
[OGL LOG][Proc: 0]gather_global_matrix : 1 mu s
[OGL LOG][Proc: 0]init_precond : 6 mu s
[OGL LOG][Proc: 0]generate_solver : 2 mu s
[OGL LOG][Proc: 0]solve : 204041376 mu s
[OGL LOG][Proc: 0]retrieve_result_from_device : 192030 mu s
nonehipGKOBiCGStab:  Solving for p, Initial residual = 0.929407, Final residual = 3.3731e-07, No Iterations 3933
linear solve p 204623879
time step continuity errors : sum local = 2.58367e-10, global = -1.04709e-22, cumulative = 2.78435e-19
ExecutionTime = 2152.32 s  ClockTime = 2129 s

End

Finalising parallel run
 is stored 0 foo1 is stored 0 foo1 is stored 1 foo1 is stored 0 foo1 is stored 1 foo1 is stored 0 foo1 is stored 1 foo1 is stored 0 foo1 is stored 1 foo1 is stored 0 foo1 is stored 1 foo1 is stored 0 foo1 is stored 0 foo1 is stored 0 foo1 is stored 1 foo1 is stored 0 foo1 is stored 1 foo1 is stored 0 foo1 is stored 1 foo1 is stored 0 foo1 is stored 1 foo1 is stored 0 foo1 is stored 1 foo1 is stored 0 foo1 is stored 0 foo1 is stored 0 foo1 is stored 1 foo1 is stored 0 foo1 is stored 1 foo1 is stored 0 foo1 is stored 1 foo1 is stored 0 foo1 is stored 1 foo1 is stored 0 foo1 is stored 1 foo1 is stored 0 foo1 is stored 0 foo1 is stored 0 foo1 is stored 1 foo1 is stored 0 foo1 is stored 1 foo1 is stored 0 foo1 is stored 1 foo1 is stored 0 foo1 is stored 1 foo1 is stored 0 foo1 is stored 1 foo1 is stored 0 foo1 is stored 0 foo1 is stored 0 foo1 is stored 1 foo1 is stored 0 foo1 is stored 1 foo1 is stored 0 foo1 is stored 1 foo1 is stored 0 foo1 is stored 1 foo1 is stored 0 foo1 is stored 1 foo1 is stored 0 foo1 is stored 0 foo1 is stored 0 foo1 is stored 1 foo1 is stored 0 foo1 is stored 1 foo1 is stored 0 foo1 is stored 1 foo1 is stored 0 foo1 is stored 1 foo1 is stored 0 foo1 is stored 1 foo1 is stored 0 foo1 is stored 0 foo1 is stored 0 foo1 is stored 1 foo1 is stored 0 foo1 is stored 1 foo1 is stored 0 foo1 is stored 1 foo1 is stored 0 foo1 is stored 1 foo1 is stored 0 foo1 is stored 1 foo1 is stored 0 foo1 is stored 0 foo1 is stored 0 foo1 is stored 1 foo1 is stored 0 foo1 is stored 1 foo1 is stored 0 foo1 is stored 1 foo1 is stored 0 foo1 is stored 1 foo1 is stored 0 foo1 is stored 1 foo1 is stored 0 foo1 is stored 0 foo1 is stored 0 foo1 is stored 1 foo1 is stored 0 foo1 is stored 1 foo1 is stored 0 foo1 is stored 1 foo1 is stored 0 foo1 is stored 1 foo1 is stored 0 foo1 is stored 1 foo1 is stored 0 foo1 is stored 0 foo1 is stored 0 foo1 is stored 1 foo1 is stored 0 foo1 is stored 1 foo1 is stored 0 foo1 is stored 1 foo1 is stored 0 foo1 is stored 1 foo1 is stored 0 foo1 is stored 1 foo1 is stored 0 foo1 is stored 0 foo1 is stored 0 foo1 is stored 1 foo1 is stored 0 foo1 is stored 1 foo1 is stored 0 foo1 is stored 1 foo1 is stored 0 foo1 is stored 1 foo1 is stored 0 foo1 is stored 1 foo1 is stored 0 foo1================================================================================
hash: 2cee8e494be766569c7245a63da953ae
/*---------------------------------------------------------------------------*\
| =========                 |                                                 |
| \\      /  F ield         | OpenFOAM: The Open Source CFD Toolbox           |
|  \\    /   O peration     | Version:  v2106                                 |
|   \\  /    A nd           | Website:  www.openfoam.com                      |
|    \\/     M anipulation  |                                                 |
\*---------------------------------------------------------------------------*/
Build  : f815a12bba-20210902 OPENFOAM=2106
Arch   : "LSB;label=32;scalar=64"
Exec   : icoFoam -parallel
Date   : Jan 27 2022
Time   : 01:22:27
Host   : nla-gpu2.ianm.kit.edu
PID    : 2926265
I/O    : uncollated
Case   : /home/greole/data/code/ogl_labbook/lidDrivenCavity3D/solver/Variation_mesh/400/Variation_matrix_solver/BiCGStab_NoPrecond_HIP/Variation_mpiRank/20/base
nProcs : 20
Hosts  :
(
    (nla-gpu2.ianm.kit.edu 20)
)
Pstream initialized with:
    floatTransfer      : 0
    nProcsSimpleSum    : 0
    commsType          : nonBlocking
    polling iterations : 0
trapFpe: Floating point exception trapping enabled (FOAM_SIGFPE).
fileModificationChecking : Monitoring run-time modified files using timeStampMaster (fileModificationSkew 5, maxFileModificationPolls 20)
allowSystemOperations : Allowing user-supplied system call operations

// * * * * * * * * * * * * * * * * * * * * * * * * * * * * * * * * * * * * * //
Create time

Create mesh for time = 0


PISO: Operating solver in PISO mode

Reading transportProperties

Reading field p

Reading field U

Reading/calculating face flux field phi


Starting time loop

Time = 0.00025

Courant Number mean: 0 max: 0
DILUPBiCGStab:  Solving for Ux, Initial residual = 1, Final residual = 0.0337341, No Iterations 5
DILUPBiCGStab:  Solving for Uy:  solution singularity
DILUPBiCGStab:  Solving for Uz:  solution singularity
linear solve U 2314280
[OGL LOG][Proc: 0]global_index_init : 181086 mu s
[OGL LOG][Proc: 0]global_index_init : 6 mu s
[OGL LOG][Proc: 0]global_index_init : 5 mu s
[OGL LOG][Proc: 0]global_index_init : 6 mu s
[OGL LOG][Proc: 0]init_host_sparsity_pattern : 161457263 mu s
[OGL LOG][Proc: 0]update_host_matrix_data : 103010 mu s
[OGL LOG][Proc: 0]convert_coo_to_csr : 210431 mu s
[OGL LOG][Proc: 0][DevicePersistentArray.H:231] !!!! check if global dense vector p_solution_global is stored
 is stored 0 foo1[OGL LOG][Proc: 0][DevicePersistentArray.H:257] Store global dense vector p_solution_global 
[OGL LOG][Proc: 0]gather_initGuess : 1242957 mu s
[OGL LOG][Proc: 0][DevicePersistentArray.H:231] !!!! check if global dense vector p_rhs_global is stored
 is stored 0 foo1[OGL LOG][Proc: 0]gather_RHS : 251530 mu s
[OGL LOG][Proc: 0]gather_global_matrix : 1 mu s
[OGL LOG][Proc: 0]init_precond : 22 mu s
[OGL LOG][Proc: 0]generate_solver : 25 mu s
[OGL LOG][Proc: 0]solve : 395475338 mu s
[OGL LOG][Proc: 0]retrieve_result_from_device : 440341 mu s
nonehipGKOBiCGStab:  Solving for p, Initial residual = 1, Final residual = 8.03293e-07, No Iterations 3475
linear solve p 736425615
time step continuity errors : sum local = 2.63626e-06, global = 2.6033e-20, cumulative = 2.6033e-20
[OGL LOG][Proc: 0]global_index_init : 132 mu s
[OGL LOG][Proc: 0]global_index_init : 8 mu s
[OGL LOG][Proc: 0]global_index_init : 9 mu s
[OGL LOG][Proc: 0]global_index_init : 7 mu s
[OGL LOG][Proc: 0]update_host_matrix_data : 174137 mu s
[OGL LOG][Proc: 0][DevicePersistentArray.H:231] !!!! check if global dense vector p_solution_global is stored
 is stored 1 foo1[OGL LOG][Proc: 0][DevicePersistentArray.H:237] global dense vector p_solution_global stored, retrieving from object registry
[OGL LOG][Proc: 0]gather_initGuess : 52 mu s
[OGL LOG][Proc: 0][DevicePersistentArray.H:231] !!!! check if global dense vector p_rhs_global is stored
 is stored 0 foo1[OGL LOG][Proc: 0]gather_RHS : 356371 mu s
[OGL LOG][Proc: 0]gather_global_matrix : 1 mu s
[OGL LOG][Proc: 0]init_precond : 8 mu s
[OGL LOG][Proc: 0]generate_solver : 2 mu s
[OGL LOG][Proc: 0]solve : 454898225 mu s
[OGL LOG][Proc: 0]retrieve_result_from_device : 292491 mu s
nonehipGKOBiCGStab:  Solving for p, Initial residual = 0.844353, Final residual = 7.14716e-07, No Iterations 4448
linear solve p 455765735
time step continuity errors : sum local = 1.03579e-10, global = 2.75635e-22, cumulative = 2.63087e-20
ExecutionTime = 1222.5 s  ClockTime = 1214 s

Time = 0.0005

Courant Number mean: 0.0249027 max: 0.905319
DILUPBiCGStab:  Solving for Ux, Initial residual = 0.0981967, Final residual = 0.0228395, No Iterations 5
DILUPBiCGStab:  Solving for Uy, Initial residual = 0.574514, Final residual = 0.129039, No Iterations 5
DILUPBiCGStab:  Solving for Uz, Initial residual = 0.947012, Final residual = 0.232472, No Iterations 5
linear solve U 4565531
[OGL LOG][Proc: 0]global_index_init : 35 mu s
[OGL LOG][Proc: 0]global_index_init : 8 mu s
[OGL LOG][Proc: 0]global_index_init : 9 mu s
[OGL LOG][Proc: 0]global_index_init : 6 mu s
[OGL LOG][Proc: 0]update_host_matrix_data : 145743 mu s
[OGL LOG][Proc: 0][DevicePersistentArray.H:231] !!!! check if global dense vector p_solution_global is stored
 is stored 1 foo1[OGL LOG][Proc: 0][DevicePersistentArray.H:237] global dense vector p_solution_global stored, retrieving from object registry
[OGL LOG][Proc: 0]gather_initGuess : 42 mu s
[OGL LOG][Proc: 0][DevicePersistentArray.H:231] !!!! check if global dense vector p_rhs_global is stored
 is stored 0 foo1[OGL LOG][Proc: 0]gather_RHS : 413775 mu s
[OGL LOG][Proc: 0]gather_global_matrix : 0 mu s
[OGL LOG][Proc: 0]init_precond : 6 mu s
[OGL LOG][Proc: 0]generate_solver : 2 mu s
[OGL LOG][Proc: 0]solve : 489010154 mu s
[OGL LOG][Proc: 0]retrieve_result_from_device : 611601 mu s
nonehipGKOBiCGStab:  Solving for p, Initial residual = 0.942639, Final residual = 2.3642e-07, No Iterations 4337
linear solve p 490329006
time step continuity errors : sum local = 2.66303e-08, global = -9.34843e-22, cumulative = 2.53738e-20
[OGL LOG][Proc: 0]global_index_init : 54 mu s
[OGL LOG][Proc: 0]global_index_init : 6 mu s
[OGL LOG][Proc: 0]global_index_init : 8 mu s
[OGL LOG][Proc: 0]global_index_init : 9 mu s
[OGL LOG][Proc: 0]update_host_matrix_data : 137925 mu s
[OGL LOG][Proc: 0][DevicePersistentArray.H:231] !!!! check if global dense vector p_solution_global is stored
 is stored 1 foo1[OGL LOG][Proc: 0][DevicePersistentArray.H:237] global dense vector p_solution_global stored, retrieving from object registry
[OGL LOG][Proc: 0]gather_initGuess : 39 mu s
[OGL LOG][Proc: 0][DevicePersistentArray.H:231] !!!! check if global dense vector p_rhs_global is stored
 is stored 0 foo1[OGL LOG][Proc: 0]gather_RHS : 615288 mu s
[OGL LOG][Proc: 0]gather_global_matrix : 1 mu s
[OGL LOG][Proc: 0]init_precond : 6 mu s
[OGL LOG][Proc: 0]generate_solver : 2 mu s
[OGL LOG][Proc: 0]solve : 571241479 mu s
[OGL LOG][Proc: 0]retrieve_result_from_device : 304005 mu s
nonehipGKOBiCGStab:  Solving for p, Initial residual = 0.89589, Final residual = 8.14308e-07, No Iterations 5363
linear solve p 572453304
time step continuity errors : sum local = 2.39988e-10, global = 5.60341e-22, cumulative = 2.59342e-20
ExecutionTime = 2301.77 s  ClockTime = 2285 s

Time = 0.00075

Courant Number mean: 0.0403948 max: 1.11033
DILUPBiCGStab:  Solving for Ux, Initial residual = 0.0633854, Final residual = 0.0120502, No Iterations 5
DILUPBiCGStab:  Solving for Uy, Initial residual = 0.447175, Final residual = 0.0621103, No Iterations 5
DILUPBiCGStab:  Solving for Uz, Initial residual = 0.846691, Final residual = 0.161603, No Iterations 5
linear solve U 4556794
[OGL LOG][Proc: 0]global_index_init : 154 mu s
[OGL LOG][Proc: 0]global_index_init : 7 mu s
[OGL LOG][Proc: 0]global_index_init : 9 mu s
[OGL LOG][Proc: 0]global_index_init : 7 mu s
[OGL LOG][Proc: 0]update_host_matrix_data : 137653 mu s
[OGL LOG][Proc: 0][DevicePersistentArray.H:231] !!!! check if global dense vector p_solution_global is stored
 is stored 1 foo1[OGL LOG][Proc: 0][DevicePersistentArray.H:237] global dense vector p_solution_global stored, retrieving from object registry
[OGL LOG][Proc: 0]gather_initGuess : 44 mu s
[OGL LOG][Proc: 0][DevicePersistentArray.H:231] !!!! check if global dense vector p_rhs_global is stored
 is stored 0 foo1[OGL LOG][Proc: 0]gather_RHS : 233012 mu s
[OGL LOG][Proc: 0]gather_global_matrix : 1 mu s
[OGL LOG][Proc: 0]init_precond : 5 mu s
[OGL LOG][Proc: 0]generate_solver : 2 mu s
[OGL LOG][Proc: 0]solve : 562183519 mu s
[OGL LOG][Proc: 0]retrieve_result_from_device : 629915 mu s
nonehipGKOBiCGStab:  Solving for p, Initial residual = 0.970893, Final residual = 5.33312e-07, No Iterations 5136
linear solve p 563752607
time step continuity errors : sum local = 4.08259e-10, global = -1.65687e-21, cumulative = 2.42773e-20
[OGL LOG][Proc: 0]global_index_init : 298 mu s
[OGL LOG][Proc: 0]global_index_init : 7 mu s
[OGL LOG][Proc: 0]global_index_init : 9 mu s
[OGL LOG][Proc: 0]global_index_init : 7 mu s
[OGL LOG][Proc: 0]update_host_matrix_data : 140738 mu s
[OGL LOG][Proc: 0][DevicePersistentArray.H:231] !!!! check if global dense vector p_solution_global is stored
 is stored 1 foo1[OGL LOG][Proc: 0][DevicePersistentArray.H:237] global dense vector p_solution_global stored, retrieving from object registry
[OGL LOG][Proc: 0]gather_initGuess : 25 mu s
[OGL LOG][Proc: 0][DevicePersistentArray.H:231] !!!! check if global dense vector p_rhs_global is stored
 is stored 0 foo1[OGL LOG][Proc: 0]gather_RHS : 234393 mu s
[OGL LOG][Proc: 0]gather_global_matrix : 1 mu s
[OGL LOG][Proc: 0]init_precond : 6 mu s
[OGL LOG][Proc: 0]generate_solver : 2 mu s
[OGL LOG][Proc: 0]solve : 432920250 mu s
[OGL LOG][Proc: 0]retrieve_result_from_device : 442826 mu s
nonehipGKOBiCGStab:  Solving for p, Initial residual = 0.933083, Final residual = 7.39666e-07, No Iterations 3998
linear solve p 434090281
time step continuity errors : sum local = 8.40508e-09, global = 5.83757e-22, cumulative = 2.4861e-20
ExecutionTime = 3315.13 s  ClockTime = 3291 s

End

Finalising parallel run
 is stored 0 foo1 is stored 0 foo1 is stored 1 foo1 is stored 0 foo1 is stored 1 foo1 is stored 0 foo1 is stored 1 foo1 is stored 0 foo1 is stored 1 foo1 is stored 0 foo1 is stored 1 foo1 is stored 0 foo1 is stored 0 foo1 is stored 0 foo1 is stored 1 foo1 is stored 0 foo1 is stored 1 foo1 is stored 0 foo1 is stored 1 foo1 is stored 0 foo1 is stored 1 foo1 is stored 0 foo1 is stored 1 foo1 is stored 0 foo1 is stored 0 foo1 is stored 0 foo1 is stored 1 foo1 is stored 0 foo1 is stored 1 foo1 is stored 0 foo1 is stored 1 foo1 is stored 0 foo1 is stored 1 foo1 is stored 0 foo1 is stored 1 foo1 is stored 0 foo1 is stored 0 foo1 is stored 0 foo1 is stored 1 foo1 is stored 0 foo1 is stored 1 foo1 is stored 0 foo1 is stored 1 foo1 is stored 0 foo1 is stored 1 foo1 is stored 0 foo1 is stored 1 foo1 is stored 0 foo1 is stored 0 foo1 is stored 0 foo1 is stored 1 foo1 is stored 0 foo1 is stored 1 foo1 is stored 0 foo1 is stored 1 foo1 is stored 0 foo1 is stored 1 foo1 is stored 0 foo1 is stored 1 foo1 is stored 0 foo1 is stored 0 foo1 is stored 0 foo1 is stored 1 foo1 is stored 0 foo1 is stored 1 foo1 is stored 0 foo1 is stored 1 foo1 is stored 0 foo1 is stored 1 foo1 is stored 0 foo1 is stored 1 foo1 is stored 0 foo1 is stored 0 foo1 is stored 0 foo1 is stored 1 foo1 is stored 0 foo1 is stored 1 foo1 is stored 0 foo1 is stored 1 foo1 is stored 0 foo1 is stored 1 foo1 is stored 0 foo1 is stored 1 foo1 is stored 0 foo1 is stored 0 foo1 is stored 0 foo1 is stored 1 foo1 is stored 0 foo1 is stored 1 foo1 is stored 0 foo1 is stored 1 foo1 is stored 0 foo1 is stored 1 foo1 is stored 0 foo1 is stored 1 foo1 is stored 0 foo1 is stored 0 foo1 is stored 0 foo1 is stored 1 foo1 is stored 0 foo1 is stored 1 foo1 is stored 0 foo1 is stored 1 foo1 is stored 0 foo1 is stored 1 foo1 is stored 0 foo1 is stored 1 foo1 is stored 0 foo1 is stored 0 foo1 is stored 0 foo1 is stored 1 foo1 is stored 0 foo1 is stored 1 foo1 is stored 0 foo1 is stored 1 foo1 is stored 0 foo1 is stored 1 foo1 is stored 0 foo1 is stored 1 foo1 is stored 0 foo1 is stored 0 foo1 is stored 0 foo1 is stored 1 foo1 is stored 0 foo1 is stored 1 foo1 is stored 0 foo1 is stored 1 foo1 is stored 0 foo1 is stored 1 foo1 is stored 0 foo1 is stored 1 foo1 is stored 0 foo1 is stored 0 foo1 is stored 0 foo1 is stored 1 foo1 is stored 0 foo1 is stored 1 foo1 is stored 0 foo1 is stored 1 foo1 is stored 0 foo1 is stored 1 foo1 is stored 0 foo1 is stored 1 foo1 is stored 0 foo1 is stored 0 foo1 is stored 0 foo1 is stored 1 foo1 is stored 0 foo1 is stored 1 foo1 is stored 0 foo1 is stored 1 foo1 is stored 0 foo1 is stored 1 foo1 is stored 0 foo1 is stored 1 foo1 is stored 0 foo1 is stored 0 foo1 is stored 0 foo1 is stored 1 foo1 is stored 0 foo1 is stored 1 foo1 is stored 0 foo1 is stored 1 foo1 is stored 0 foo1 is stored 1 foo1 is stored 0 foo1 is stored 1 foo1 is stored 0 foo1 is stored 0 foo1 is stored 0 foo1 is stored 1 foo1 is stored 0 foo1 is stored 1 foo1 is stored 0 foo1 is stored 1 foo1 is stored 0 foo1 is stored 1 foo1 is stored 0 foo1 is stored 1 foo1 is stored 0 foo1 is stored 0 foo1 is stored 0 foo1 is stored 1 foo1 is stored 0 foo1 is stored 1 foo1 is stored 0 foo1 is stored 1 foo1 is stored 0 foo1 is stored 1 foo1 is stored 0 foo1 is stored 1 foo1 is stored 0 foo1 is stored 0 foo1 is stored 0 foo1 is stored 1 foo1 is stored 0 foo1 is stored 1 foo1 is stored 0 foo1 is stored 1 foo1 is stored 0 foo1 is stored 1 foo1 is stored 0 foo1 is stored 1 foo1 is stored 0 foo1 is stored 0 foo1 is stored 0 foo1 is stored 1 foo1 is stored 0 foo1 is stored 1 foo1 is stored 0 foo1 is stored 1 foo1 is stored 0 foo1 is stored 1 foo1 is stored 0 foo1 is stored 1 foo1 is stored 0 foo1 is stored 0 foo1 is stored 0 foo1 is stored 1 foo1 is stored 0 foo1 is stored 1 foo1 is stored 0 foo1 is stored 1 foo1 is stored 0 foo1 is stored 1 foo1 is stored 0 foo1 is stored 1 foo1 is stored 0 foo1================================================================================
hash: 9916dd9c9701cb97f9b0b9e3c65c96dd
/*---------------------------------------------------------------------------*\
| =========                 |                                                 |
| \\      /  F ield         | OpenFOAM: The Open Source CFD Toolbox           |
|  \\    /   O peration     | Version:  v2106                                 |
|   \\  /    A nd           | Website:  www.openfoam.com                      |
|    \\/     M anipulation  |                                                 |
\*---------------------------------------------------------------------------*/
Build  : f815a12bba-20210902 OPENFOAM=2106
Arch   : "LSB;label=32;scalar=64"
Exec   : icoFoam -parallel
Date   : Jan 27 2022
Time   : 02:17:19
Host   : nla-gpu2.ianm.kit.edu
PID    : 2956544
I/O    : uncollated
Case   : /home/greole/data/code/ogl_labbook/lidDrivenCavity3D/solver/Variation_mesh/400/Variation_matrix_solver/BiCGStab_NoPrecond_HIP/Variation_mpiRank/10/base
nProcs : 10
Hosts  :
(
    (nla-gpu2.ianm.kit.edu 10)
)
Pstream initialized with:
    floatTransfer      : 0
    nProcsSimpleSum    : 0
    commsType          : nonBlocking
    polling iterations : 0
trapFpe: Floating point exception trapping enabled (FOAM_SIGFPE).
fileModificationChecking : Monitoring run-time modified files using timeStampMaster (fileModificationSkew 5, maxFileModificationPolls 20)
allowSystemOperations : Allowing user-supplied system call operations

// * * * * * * * * * * * * * * * * * * * * * * * * * * * * * * * * * * * * * //
Create time

Create mesh for time = 0


PISO: Operating solver in PISO mode

Reading transportProperties

Reading field p

Reading field U

Reading/calculating face flux field phi


Starting time loop

Time = 0.00025

Courant Number mean: 0 max: 0
DILUPBiCGStab:  Solving for Ux, Initial residual = 1, Final residual = 0.0333046, No Iterations 5
DILUPBiCGStab:  Solving for Uy:  solution singularity
DILUPBiCGStab:  Solving for Uz:  solution singularity
linear solve U 3428474
[OGL LOG][Proc: 0]global_index_init : 31590 mu s
[OGL LOG][Proc: 0]global_index_init : 4 mu s
[OGL LOG][Proc: 0]global_index_init : 5 mu s
[OGL LOG][Proc: 0]global_index_init : 4 mu s
[OGL LOG][Proc: 0]init_host_sparsity_pattern : 490053105 mu s
[OGL LOG][Proc: 0]update_host_matrix_data : 166317 mu s
[OGL LOG][Proc: 0]convert_coo_to_csr : 19313 mu s
[OGL LOG][Proc: 0][DevicePersistentArray.H:231] !!!! check if global dense vector p_solution_global is stored
 is stored 0 foo1[OGL LOG][Proc: 0][DevicePersistentArray.H:257] Store global dense vector p_solution_global 
[OGL LOG][Proc: 0]gather_initGuess : 2183728 mu s
[OGL LOG][Proc: 0][DevicePersistentArray.H:231] !!!! check if global dense vector p_rhs_global is stored
 is stored 0 foo1[OGL LOG][Proc: 0]gather_RHS : 150039 mu s
[OGL LOG][Proc: 0]gather_global_matrix : 0 mu s
[OGL LOG][Proc: 0]init_precond : 19 mu s
[OGL LOG][Proc: 0]generate_solver : 21 mu s
[OGL LOG][Proc: 0]solve : 161161185 mu s
[OGL LOG][Proc: 0]retrieve_result_from_device : 178945 mu s
nonehipGKOBiCGStab:  Solving for p, Initial residual = 1, Final residual = 9.46045e-07, No Iterations 3597
linear solve p 972228025
time step continuity errors : sum local = 4.33533e-06, global = 6.40254e-20, cumulative = 6.40254e-20
[OGL LOG][Proc: 0]global_index_init : 578 mu s
[OGL LOG][Proc: 0]global_index_init : 4 mu s
[OGL LOG][Proc: 0]global_index_init : 5 mu s
[OGL LOG][Proc: 0]global_index_init : 5 mu s
[OGL LOG][Proc: 0]update_host_matrix_data : 201885 mu s
[OGL LOG][Proc: 0][DevicePersistentArray.H:231] !!!! check if global dense vector p_solution_global is stored
 is stored 1 foo1[OGL LOG][Proc: 0][DevicePersistentArray.H:237] global dense vector p_solution_global stored, retrieving from object registry
[OGL LOG][Proc: 0]gather_initGuess : 49 mu s
[OGL LOG][Proc: 0][DevicePersistentArray.H:231] !!!! check if global dense vector p_rhs_global is stored
 is stored 0 foo1[OGL LOG][Proc: 0]gather_RHS : 155617 mu s
[OGL LOG][Proc: 0]gather_global_matrix : 0 mu s
[OGL LOG][Proc: 0]init_precond : 6 mu s
[OGL LOG][Proc: 0]generate_solver : 2 mu s
[OGL LOG][Proc: 0]solve : 157440619 mu s
[OGL LOG][Proc: 0]retrieve_result_from_device : 174759 mu s
nonehipGKOBiCGStab:  Solving for p, Initial residual = 0.845305, Final residual = 8.95326e-07, No Iterations 3647
linear solve p 158059368
time step continuity errors : sum local = 2.23964e-10, global = 7.08787e-22, cumulative = 6.47342e-20
ExecutionTime = 1174.96 s  ClockTime = 1168 s

Time = 0.0005

Courant Number mean: 0.0249904 max: 0.90391
DILUPBiCGStab:  Solving for Ux, Initial residual = 0.0981573, Final residual = 0.0226146, No Iterations 5
DILUPBiCGStab:  Solving for Uy, Initial residual = 0.574617, Final residual = 0.126925, No Iterations 5
DILUPBiCGStab:  Solving for Uz, Initial residual = 0.95845, Final residual = 0.252475, No Iterations 5
linear solve U 6616185
[OGL LOG][Proc: 0]global_index_init : 2517 mu s
[OGL LOG][Proc: 0]global_index_init : 5 mu s
[OGL LOG][Proc: 0]global_index_init : 5 mu s
[OGL LOG][Proc: 0]global_index_init : 5 mu s
[OGL LOG][Proc: 0]update_host_matrix_data : 200497 mu s
[OGL LOG][Proc: 0][DevicePersistentArray.H:231] !!!! check if global dense vector p_solution_global is stored
 is stored 1 foo1[OGL LOG][Proc: 0][DevicePersistentArray.H:237] global dense vector p_solution_global stored, retrieving from object registry
[OGL LOG][Proc: 0]gather_initGuess : 40 mu s
[OGL LOG][Proc: 0][DevicePersistentArray.H:231] !!!! check if global dense vector p_rhs_global is stored
 is stored 0 foo1[OGL LOG][Proc: 0]gather_RHS : 155041 mu s
[OGL LOG][Proc: 0]gather_global_matrix : 1 mu s
[OGL LOG][Proc: 0]init_precond : 7 mu s
[OGL LOG][Proc: 0]generate_solver : 2 mu s
[OGL LOG][Proc: 0]solve : 131421740 mu s
[OGL LOG][Proc: 0]retrieve_result_from_device : 190538 mu s
nonehipGKOBiCGStab:  Solving for p, Initial residual = 0.940468, Final residual = 5.75448e-07, No Iterations 3045
linear solve p 132054590
time step continuity errors : sum local = 2.33493e-10, global = 6.34926e-23, cumulative = 6.47977e-20
[OGL LOG][Proc: 0]global_index_init : 2436 mu s
[OGL LOG][Proc: 0]global_index_init : 4 mu s
[OGL LOG][Proc: 0]global_index_init : 5 mu s
[OGL LOG][Proc: 0]global_index_init : 5 mu s
[OGL LOG][Proc: 0]update_host_matrix_data : 199830 mu s
[OGL LOG][Proc: 0][DevicePersistentArray.H:231] !!!! check if global dense vector p_solution_global is stored
 is stored 1 foo1[OGL LOG][Proc: 0][DevicePersistentArray.H:237] global dense vector p_solution_global stored, retrieving from object registry
[OGL LOG][Proc: 0]gather_initGuess : 42 mu s
[OGL LOG][Proc: 0][DevicePersistentArray.H:231] !!!! check if global dense vector p_rhs_global is stored
 is stored 0 foo1[OGL LOG][Proc: 0]gather_RHS : 146658 mu s
[OGL LOG][Proc: 0]gather_global_matrix : 1 mu s
[OGL LOG][Proc: 0]init_precond : 6 mu s
[OGL LOG][Proc: 0]generate_solver : 3 mu s
[OGL LOG][Proc: 0]solve : 140520365 mu s
[OGL LOG][Proc: 0]retrieve_result_from_device : 192389 mu s
nonehipGKOBiCGStab:  Solving for p, Initial residual = 0.895713, Final residual = 1.02181e-07, No Iterations 3267
linear solve p 141135025
time step continuity errors : sum local = 4.77136e-11, global = -9.84794e-22, cumulative = 6.38129e-20
ExecutionTime = 1465.98 s  ClockTime = 1452 s

Time = 0.00075

Courant Number mean: 0.0404912 max: 1.10993
DILUPBiCGStab:  Solving for Ux, Initial residual = 0.063423, Final residual = 0.0118429, No Iterations 5
DILUPBiCGStab:  Solving for Uy, Initial residual = 0.447265, Final residual = 0.0601859, No Iterations 5
DILUPBiCGStab:  Solving for Uz, Initial residual = 0.858884, Final residual = 0.16238, No Iterations 5
linear solve U 6586019
[OGL LOG][Proc: 0]global_index_init : 2717 mu s
[OGL LOG][Proc: 0]global_index_init : 4 mu s
[OGL LOG][Proc: 0]global_index_init : 5 mu s
[OGL LOG][Proc: 0]global_index_init : 6 mu s
[OGL LOG][Proc: 0]update_host_matrix_data : 198141 mu s
[OGL LOG][Proc: 0][DevicePersistentArray.H:231] !!!! check if global dense vector p_solution_global is stored
 is stored 1 foo1[OGL LOG][Proc: 0][DevicePersistentArray.H:237] global dense vector p_solution_global stored, retrieving from object registry
[OGL LOG][Proc: 0]gather_initGuess : 38 mu s
[OGL LOG][Proc: 0][DevicePersistentArray.H:231] !!!! check if global dense vector p_rhs_global is stored
 is stored 0 foo1[OGL LOG][Proc: 0]gather_RHS : 139986 mu s
[OGL LOG][Proc: 0]gather_global_matrix : 0 mu s
[OGL LOG][Proc: 0]init_precond : 6 mu s
[OGL LOG][Proc: 0]generate_solver : 2 mu s
[OGL LOG][Proc: 0]solve : 335278686 mu s
[OGL LOG][Proc: 0]retrieve_result_from_device : 190599 mu s
nonehipGKOBiCGStab:  Solving for p, Initial residual = 0.97077, Final residual = 7.4115e-07, No Iterations 7735
linear solve p 335881189
time step continuity errors : sum local = 9.37131e-09, global = 5.29434e-22, cumulative = 6.43424e-20
[OGL LOG][Proc: 0]global_index_init : 2884 mu s
[OGL LOG][Proc: 0]global_index_init : 4 mu s
[OGL LOG][Proc: 0]global_index_init : 4 mu s
[OGL LOG][Proc: 0]global_index_init : 5 mu s
[OGL LOG][Proc: 0]update_host_matrix_data : 199262 mu s
[OGL LOG][Proc: 0][DevicePersistentArray.H:231] !!!! check if global dense vector p_solution_global is stored
 is stored 1 foo1[OGL LOG][Proc: 0][DevicePersistentArray.H:237] global dense vector p_solution_global stored, retrieving from object registry
[OGL LOG][Proc: 0]gather_initGuess : 37 mu s
[OGL LOG][Proc: 0][DevicePersistentArray.H:231] !!!! check if global dense vector p_rhs_global is stored
 is stored 0 foo1[OGL LOG][Proc: 0]gather_RHS : 147036 mu s
[OGL LOG][Proc: 0]gather_global_matrix : 0 mu s
[OGL LOG][Proc: 0]init_precond : 6 mu s
[OGL LOG][Proc: 0]generate_solver : 2 mu s
[OGL LOG][Proc: 0]solve : 174217946 mu s
[OGL LOG][Proc: 0]retrieve_result_from_device : 210144 mu s
nonehipGKOBiCGStab:  Solving for p, Initial residual = 0.933665, Final residual = 1.3594e-07, No Iterations 4017
linear solve p 174858973
time step continuity errors : sum local = 1.04213e-10, global = -3.5604e-22, cumulative = 6.39863e-20
ExecutionTime = 2000.34 s  ClockTime = 1975 s

End

Finalising parallel run
 is stored 0 foo1 is stored 0 foo1 is stored 1 foo1 is stored 0 foo1 is stored 1 foo1 is stored 0 foo1 is stored 1 foo1 is stored 0 foo1 is stored 1 foo1 is stored 0 foo1 is stored 1 foo1 is stored 0 foo1 is stored 0 foo1 is stored 0 foo1 is stored 1 foo1 is stored 0 foo1 is stored 1 foo1 is stored 0 foo1 is stored 1 foo1 is stored 0 foo1 is stored 1 foo1 is stored 0 foo1 is stored 1 foo1 is stored 0 foo1 is stored 0 foo1 is stored 0 foo1 is stored 1 foo1 is stored 0 foo1 is stored 1 foo1 is stored 0 foo1 is stored 1 foo1 is stored 0 foo1 is stored 1 foo1 is stored 0 foo1 is stored 1 foo1 is stored 0 foo1 is stored 0 foo1 is stored 0 foo1 is stored 1 foo1 is stored 0 foo1 is stored 1 foo1 is stored 0 foo1 is stored 1 foo1 is stored 0 foo1 is stored 1 foo1 is stored 0 foo1 is stored 1 foo1 is stored 0 foo1 is stored 0 foo1 is stored 0 foo1 is stored 1 foo1 is stored 0 foo1 is stored 1 foo1 is stored 0 foo1 is stored 1 foo1 is stored 0 foo1 is stored 1 foo1 is stored 0 foo1 is stored 1 foo1 is stored 0 foo1 is stored 0 foo1 is stored 0 foo1 is stored 1 foo1 is stored 0 foo1 is stored 1 foo1 is stored 0 foo1 is stored 1 foo1 is stored 0 foo1 is stored 1 foo1 is stored 0 foo1 is stored 1 foo1 is stored 0 foo1 is stored 0 foo1 is stored 0 foo1 is stored 1 foo1 is stored 0 foo1 is stored 1 foo1 is stored 0 foo1 is stored 1 foo1 is stored 0 foo1 is stored 1 foo1 is stored 0 foo1 is stored 1 foo1 is stored 0 foo1 is stored 0 foo1 is stored 0 foo1 is stored 1 foo1 is stored 0 foo1 is stored 1 foo1 is stored 0 foo1 is stored 1 foo1 is stored 0 foo1 is stored 1 foo1 is stored 0 foo1 is stored 1 foo1 is stored 0 foo1 is stored 0 foo1 is stored 0 foo1 is stored 1 foo1 is stored 0 foo1 is stored 1 foo1 is stored 0 foo1 is stored 1 foo1 is stored 0 foo1 is stored 1 foo1 is stored 0 foo1 is stored 1 foo1 is stored 0 foo1================================================================================
hash: fe4e8d8940e2649c8b77a1d6577523ee
/*---------------------------------------------------------------------------*\
| =========                 |                                                 |
| \\      /  F ield         | OpenFOAM: The Open Source CFD Toolbox           |
|  \\    /   O peration     | Version:  v2106                                 |
|   \\  /    A nd           | Website:  www.openfoam.com                      |
|    \\/     M anipulation  |                                                 |
\*---------------------------------------------------------------------------*/
Build  : f815a12bba-20210902 OPENFOAM=2106
Arch   : "LSB;label=32;scalar=64"
Exec   : icoFoam -parallel
Date   : Jan 27 2022
Time   : 02:50:15
Host   : nla-gpu2.ianm.kit.edu
PID    : 2974748
I/O    : uncollated
Case   : /home/greole/data/code/ogl_labbook/lidDrivenCavity3D/solver/Variation_mesh/400/Variation_matrix_solver/BiCGStab_NoPrecond_HIP/Variation_mpiRank/4/base
nProcs : 4
Hosts  :
(
    (nla-gpu2.ianm.kit.edu 4)
)
Pstream initialized with:
    floatTransfer      : 0
    nProcsSimpleSum    : 0
    commsType          : nonBlocking
    polling iterations : 0
trapFpe: Floating point exception trapping enabled (FOAM_SIGFPE).
fileModificationChecking : Monitoring run-time modified files using timeStampMaster (fileModificationSkew 5, maxFileModificationPolls 20)
allowSystemOperations : Allowing user-supplied system call operations

// * * * * * * * * * * * * * * * * * * * * * * * * * * * * * * * * * * * * * //
Create time

Create mesh for time = 0


PISO: Operating solver in PISO mode

Reading transportProperties

Reading field p

Reading field U

Reading/calculating face flux field phi


Starting time loop

Time = 0.00025

Courant Number mean: 0 max: 0
DILUPBiCGStab:  Solving for Ux, Initial residual = 1, Final residual = 0.0328664, No Iterations 5
DILUPBiCGStab:  Solving for Uy:  solution singularity
DILUPBiCGStab:  Solving for Uz:  solution singularity
linear solve U 7219882
[OGL LOG][Proc: 0]global_index_init : 4074 mu s
[OGL LOG][Proc: 0]global_index_init : 3 mu s
[OGL LOG][Proc: 0]global_index_init : 2 mu s
[OGL LOG][Proc: 0]global_index_init : 3 mu s
[OGL LOG][Proc: 0]init_host_sparsity_pattern : 2061801663 mu s
[OGL LOG][Proc: 0]update_host_matrix_data : 390935 mu s
[OGL LOG][Proc: 0]convert_coo_to_csr : 19990 mu s
[OGL LOG][Proc: 0][DevicePersistentArray.H:231] !!!! check if global dense vector p_solution_global is stored
 is stored 0 foo1[OGL LOG][Proc: 0][DevicePersistentArray.H:257] Store global dense vector p_solution_global 
[OGL LOG][Proc: 0]gather_initGuess : 4575932 mu s
[OGL LOG][Proc: 0][DevicePersistentArray.H:231] !!!! check if global dense vector p_rhs_global is stored
 is stored 0 foo1[OGL LOG][Proc: 0]gather_RHS : 137844 mu s
[OGL LOG][Proc: 0]gather_global_matrix : 1 mu s
[OGL LOG][Proc: 0]init_precond : 26 mu s
[OGL LOG][Proc: 0]generate_solver : 17 mu s
[OGL LOG][Proc: 0]solve : 145448814 mu s
[OGL LOG][Proc: 0]retrieve_result_from_device : 142716 mu s
nonehipGKOBiCGStab:  Solving for p, Initial residual = 1, Final residual = 6.83981e-07, No Iterations 4143
linear solve p -2044422134
time step continuity errors : sum local = 0.000185123, global = 3.43578e-19, cumulative = 3.43578e-19
[OGL LOG][Proc: 0]global_index_init : 22 mu s
[OGL LOG][Proc: 0]global_index_init : 10 mu s
[OGL LOG][Proc: 0]global_index_init : 2 mu s
[OGL LOG][Proc: 0]global_index_init : 2 mu s
[OGL LOG][Proc: 0]update_host_matrix_data : 326124 mu s
[OGL LOG][Proc: 0][DevicePersistentArray.H:231] !!!! check if global dense vector p_solution_global is stored
 is stored 1 foo1[OGL LOG][Proc: 0][DevicePersistentArray.H:237] global dense vector p_solution_global stored, retrieving from object registry
[OGL LOG][Proc: 0]gather_initGuess : 56 mu s
[OGL LOG][Proc: 0][DevicePersistentArray.H:231] !!!! check if global dense vector p_rhs_global is stored
 is stored 0 foo1[OGL LOG][Proc: 0]gather_RHS : 123704 mu s
[OGL LOG][Proc: 0]gather_global_matrix : 1 mu s
[OGL LOG][Proc: 0]init_precond : 6 mu s
[OGL LOG][Proc: 0]generate_solver : 1 mu s
[OGL LOG][Proc: 0]solve : 60236621 mu s
[OGL LOG][Proc: 0]retrieve_result_from_device : 147826 mu s
nonehipGKOBiCGStab:  Solving for p, Initial residual = 0.961243, Final residual = 7.41677e-07, No Iterations 1815
linear solve p 60982761
time step continuity errors : sum local = 2.86606e-10, global = 3.88174e-22, cumulative = 3.43966e-19
ExecutionTime = 2405.21 s  ClockTime = 2399 s

Time = 0.0005

Courant Number mean: 0.0250898 max: 0.904223
DILUPBiCGStab:  Solving for Ux, Initial residual = 0.0985286, Final residual = 0.0226124, No Iterations 5
DILUPBiCGStab:  Solving for Uy, Initial residual = 0.600561, Final residual = 0.130285, No Iterations 5
DILUPBiCGStab:  Solving for Uz, Initial residual = 0.905333, Final residual = 0.135075, No Iterations 5
linear solve U 13759758
[OGL LOG][Proc: 0]global_index_init : 416 mu s
[OGL LOG][Proc: 0]global_index_init : 3 mu s
[OGL LOG][Proc: 0]global_index_init : 2 mu s
[OGL LOG][Proc: 0]global_index_init : 2 mu s
[OGL LOG][Proc: 0]update_host_matrix_data : 323310 mu s
[OGL LOG][Proc: 0][DevicePersistentArray.H:231] !!!! check if global dense vector p_solution_global is stored
 is stored 1 foo1[OGL LOG][Proc: 0][DevicePersistentArray.H:237] global dense vector p_solution_global stored, retrieving from object registry
[OGL LOG][Proc: 0]gather_initGuess : 39 mu s
[OGL LOG][Proc: 0][DevicePersistentArray.H:231] !!!! check if global dense vector p_rhs_global is stored
 is stored 0 foo1[OGL LOG][Proc: 0]gather_RHS : 119490 mu s
[OGL LOG][Proc: 0]gather_global_matrix : 1 mu s
[OGL LOG][Proc: 0]init_precond : 6 mu s
[OGL LOG][Proc: 0]generate_solver : 2 mu s
[OGL LOG][Proc: 0]solve : 150831082 mu s
[OGL LOG][Proc: 0]retrieve_result_from_device : 153649 mu s
nonehipGKOBiCGStab:  Solving for p, Initial residual = 0.957337, Final residual = 2.47533e-07, No Iterations 4392
linear solve p 151579752
time step continuity errors : sum local = 1.91083e-10, global = 3.51965e-22, cumulative = 3.44318e-19
[OGL LOG][Proc: 0]global_index_init : 27 mu s
[OGL LOG][Proc: 0]global_index_init : 2 mu s
[OGL LOG][Proc: 0]global_index_init : 2 mu s
[OGL LOG][Proc: 0]global_index_init : 12 mu s
[OGL LOG][Proc: 0]update_host_matrix_data : 323407 mu s
[OGL LOG][Proc: 0][DevicePersistentArray.H:231] !!!! check if global dense vector p_solution_global is stored
 is stored 1 foo1[OGL LOG][Proc: 0][DevicePersistentArray.H:237] global dense vector p_solution_global stored, retrieving from object registry
[OGL LOG][Proc: 0]gather_initGuess : 39 mu s
[OGL LOG][Proc: 0][DevicePersistentArray.H:231] !!!! check if global dense vector p_rhs_global is stored
 is stored 0 foo1[OGL LOG][Proc: 0]gather_RHS : 119390 mu s
[OGL LOG][Proc: 0]gather_global_matrix : 1 mu s
[OGL LOG][Proc: 0]init_precond : 7 mu s
[OGL LOG][Proc: 0]generate_solver : 2 mu s
[OGL LOG][Proc: 0]solve : 135836746 mu s
[OGL LOG][Proc: 0]retrieve_result_from_device : 147567 mu s
nonehipGKOBiCGStab:  Solving for p, Initial residual = 0.902742, Final residual = 3.49433e-07, No Iterations 4025
linear solve p 136579832
time step continuity errors : sum local = 2.87093e-10, global = -9.31573e-22, cumulative = 3.43386e-19
ExecutionTime = 2725.18 s  ClockTime = 2710 s

Time = 0.00075

Courant Number mean: 0.0404906 max: 1.1097
DILUPBiCGStab:  Solving for Ux, Initial residual = 0.0652697, Final residual = 0.0120455, No Iterations 5
DILUPBiCGStab:  Solving for Uy, Initial residual = 0.48094, Final residual = 0.0626499, No Iterations 5
DILUPBiCGStab:  Solving for Uz, Initial residual = 0.92464, Final residual = 0.125076, No Iterations 5
linear solve U 13827166
[OGL LOG][Proc: 0]global_index_init : 36 mu s
[OGL LOG][Proc: 0]global_index_init : 2 mu s
[OGL LOG][Proc: 0]global_index_init : 1 mu s
[OGL LOG][Proc: 0]global_index_init : 2 mu s
[OGL LOG][Proc: 0]update_host_matrix_data : 322612 mu s
[OGL LOG][Proc: 0][DevicePersistentArray.H:231] !!!! check if global dense vector p_solution_global is stored
 is stored 1 foo1[OGL LOG][Proc: 0][DevicePersistentArray.H:237] global dense vector p_solution_global stored, retrieving from object registry
[OGL LOG][Proc: 0]gather_initGuess : 37 mu s
[OGL LOG][Proc: 0][DevicePersistentArray.H:231] !!!! check if global dense vector p_rhs_global is stored
 is stored 0 foo1[OGL LOG][Proc: 0]gather_RHS : 118727 mu s
[OGL LOG][Proc: 0]gather_global_matrix : 1 mu s
[OGL LOG][Proc: 0]init_precond : 6 mu s
[OGL LOG][Proc: 0]generate_solver : 2 mu s
[OGL LOG][Proc: 0]solve : 150015544 mu s
[OGL LOG][Proc: 0]retrieve_result_from_device : 147031 mu s
nonehipGKOBiCGStab:  Solving for p, Initial residual = 0.977972, Final residual = 7.7054e-08, No Iterations 4347
linear solve p 150756294
time step continuity errors : sum local = 7.69482e-11, global = 4.3448e-22, cumulative = 3.43821e-19
[OGL LOG][Proc: 0]global_index_init : 145 mu s
[OGL LOG][Proc: 0]global_index_init : 5 mu s
[OGL LOG][Proc: 0]global_index_init : 2 mu s
[OGL LOG][Proc: 0]global_index_init : 2 mu s
[OGL LOG][Proc: 0]update_host_matrix_data : 322838 mu s
[OGL LOG][Proc: 0][DevicePersistentArray.H:231] !!!! check if global dense vector p_solution_global is stored
 is stored 1 foo1[OGL LOG][Proc: 0][DevicePersistentArray.H:237] global dense vector p_solution_global stored, retrieving from object registry
[OGL LOG][Proc: 0]gather_initGuess : 39 mu s
[OGL LOG][Proc: 0][DevicePersistentArray.H:231] !!!! check if global dense vector p_rhs_global is stored
 is stored 0 foo1[OGL LOG][Proc: 0]gather_RHS : 118817 mu s
[OGL LOG][Proc: 0]gather_global_matrix : 1 mu s
[OGL LOG][Proc: 0]init_precond : 7 mu s
[OGL LOG][Proc: 0]generate_solver : 2 mu s
[OGL LOG][Proc: 0]solve : 125150223 mu s
[OGL LOG][Proc: 0]retrieve_result_from_device : 146400 mu s
nonehipGKOBiCGStab:  Solving for p, Initial residual = 0.925298, Final residual = 1.46589e-07, No Iterations 3720
linear solve p 125890439
time step continuity errors : sum local = 3.36784e-07, global = 5.66515e-22, cumulative = 3.44387e-19
ExecutionTime = 3033.32 s  ClockTime = 3010 s

End

Finalising parallel run
 is stored 0 foo1 is stored 0 foo1 is stored 1 foo1 is stored 0 foo1 is stored 1 foo1 is stored 0 foo1 is stored 1 foo1 is stored 0 foo1 is stored 1 foo1 is stored 0 foo1 is stored 1 foo1 is stored 0 foo1 is stored 0 foo1 is stored 0 foo1 is stored 1 foo1 is stored 0 foo1 is stored 1 foo1 is stored 0 foo1 is stored 1 foo1 is stored 0 foo1 is stored 1 foo1 is stored 0 foo1 is stored 1 foo1 is stored 0 foo1 is stored 0 foo1 is stored 0 foo1 is stored 1 foo1 is stored 0 foo1 is stored 1 foo1 is stored 0 foo1 is stored 1 foo1 is stored 0 foo1 is stored 1 foo1 is stored 0 foo1 is stored 1 foo1 is stored 0 foo1================================================================================
hash: 70c4c65937ef5c07ebd0c789acebad8b
/*---------------------------------------------------------------------------*\
| =========                 |                                                 |
| \\      /  F ield         | OpenFOAM: The Open Source CFD Toolbox           |
|  \\    /   O peration     | Version:  v2106                                 |
|   \\  /    A nd           | Website:  www.openfoam.com                      |
|    \\/     M anipulation  |                                                 |
\*---------------------------------------------------------------------------*/
Build  : f815a12bba-20210902 OPENFOAM=2106
Arch   : "LSB;label=32;scalar=64"
Exec   : icoFoam -parallel
Date   : Jan 27 2022
Time   : 03:40:27
Host   : nla-gpu2.ianm.kit.edu
PID    : 3002339
I/O    : uncollated
Case   : /home/greole/data/code/ogl_labbook/lidDrivenCavity3D/solver/Variation_mesh/400/Variation_matrix_solver/BiCGStab_NoPrecond_HIP/Variation_mpiRank/8/base
nProcs : 8
Hosts  :
(
    (nla-gpu2.ianm.kit.edu 8)
)
Pstream initialized with:
    floatTransfer      : 0
    nProcsSimpleSum    : 0
    commsType          : nonBlocking
    polling iterations : 0
trapFpe: Floating point exception trapping enabled (FOAM_SIGFPE).
fileModificationChecking : Monitoring run-time modified files using timeStampMaster (fileModificationSkew 5, maxFileModificationPolls 20)
allowSystemOperations : Allowing user-supplied system call operations

// * * * * * * * * * * * * * * * * * * * * * * * * * * * * * * * * * * * * * //
Create time

Create mesh for time = 0


PISO: Operating solver in PISO mode

Reading transportProperties

Reading field p

Reading field U

Reading/calculating face flux field phi


Starting time loop

Time = 0.00025

Courant Number mean: 0 max: 0
DILUPBiCGStab:  Solving for Ux, Initial residual = 1, Final residual = 0.0332331, No Iterations 5
DILUPBiCGStab:  Solving for Uy:  solution singularity
DILUPBiCGStab:  Solving for Uz:  solution singularity
linear solve U 3664773
[OGL LOG][Proc: 0]global_index_init : 44327 mu s
[OGL LOG][Proc: 0]global_index_init : 4 mu s
[OGL LOG][Proc: 0]global_index_init : 5 mu s
[OGL LOG][Proc: 0]global_index_init : 4 mu s
[OGL LOG][Proc: 0]init_host_sparsity_pattern : 759143309 mu s
[OGL LOG][Proc: 0]update_host_matrix_data : 183853 mu s
[OGL LOG][Proc: 0]convert_coo_to_csr : 19303 mu s
[OGL LOG][Proc: 0][DevicePersistentArray.H:231] !!!! check if global dense vector p_solution_global is stored
 is stored 0 foo1[OGL LOG][Proc: 0][DevicePersistentArray.H:257] Store global dense vector p_solution_global 
[OGL LOG][Proc: 0]gather_initGuess : 2625206 mu s
[OGL LOG][Proc: 0][DevicePersistentArray.H:231] !!!! check if global dense vector p_rhs_global is stored
 is stored 0 foo1[OGL LOG][Proc: 0]gather_RHS : 143493 mu s
[OGL LOG][Proc: 0]gather_global_matrix : 0 mu s
[OGL LOG][Proc: 0]init_precond : 19 mu s
[OGL LOG][Proc: 0]generate_solver : 19 mu s
[OGL LOG][Proc: 0]solve : 151029635 mu s
[OGL LOG][Proc: 0]retrieve_result_from_device : 154349 mu s
nonehipGKOBiCGStab:  Solving for p, Initial residual = 1, Final residual = 5.42673e-07, No Iterations 4395
linear solve p 996819493
time step continuity errors : sum local = 0.000283709, global = -1.12232e-19, cumulative = -1.12232e-19
[OGL LOG][Proc: 0]global_index_init : 409 mu s
[OGL LOG][Proc: 0]global_index_init : 5 mu s
[OGL LOG][Proc: 0]global_index_init : 5 mu s
[OGL LOG][Proc: 0]global_index_init : 3 mu s
[OGL LOG][Proc: 0]update_host_matrix_data : 186499 mu s
[OGL LOG][Proc: 0][DevicePersistentArray.H:231] !!!! check if global dense vector p_solution_global is stored
 is stored 1 foo1[OGL LOG][Proc: 0][DevicePersistentArray.H:237] global dense vector p_solution_global stored, retrieving from object registry
[OGL LOG][Proc: 0]gather_initGuess : 36 mu s
[OGL LOG][Proc: 0][DevicePersistentArray.H:231] !!!! check if global dense vector p_rhs_global is stored
 is stored 0 foo1[OGL LOG][Proc: 0]gather_RHS : 147854 mu s
[OGL LOG][Proc: 0]gather_global_matrix : 1 mu s
[OGL LOG][Proc: 0]init_precond : 6 mu s
[OGL LOG][Proc: 0]generate_solver : 2 mu s
[OGL LOG][Proc: 0]solve : 139987543 mu s
[OGL LOG][Proc: 0]retrieve_result_from_device : 157653 mu s
nonehipGKOBiCGStab:  Solving for p, Initial residual = 0.969172, Final residual = 1.01393e-07, No Iterations 4025
linear solve p 140551642
time step continuity errors : sum local = 8.4692e-11, global = 1.40689e-22, cumulative = -1.12091e-19
ExecutionTime = 1193.72 s  ClockTime = 1184 s

Time = 0.0005

Courant Number mean: 0.0250061 max: 0.903906
DILUPBiCGStab:  Solving for Ux, Initial residual = 0.0990233, Final residual = 0.0231215, No Iterations 5
DILUPBiCGStab:  Solving for Uy, Initial residual = 0.593905, Final residual = 0.138698, No Iterations 5
DILUPBiCGStab:  Solving for Uz, Initial residual = 0.877913, Final residual = 0.166648, No Iterations 5
linear solve U 7041290
[OGL LOG][Proc: 0]global_index_init : 33 mu s
[OGL LOG][Proc: 0]global_index_init : 4 mu s
[OGL LOG][Proc: 0]global_index_init : 13 mu s
[OGL LOG][Proc: 0]global_index_init : 5 mu s
[OGL LOG][Proc: 0]update_host_matrix_data : 165459 mu s
[OGL LOG][Proc: 0][DevicePersistentArray.H:231] !!!! check if global dense vector p_solution_global is stored
 is stored 1 foo1[OGL LOG][Proc: 0][DevicePersistentArray.H:237] global dense vector p_solution_global stored, retrieving from object registry
[OGL LOG][Proc: 0]gather_initGuess : 32 mu s
[OGL LOG][Proc: 0][DevicePersistentArray.H:231] !!!! check if global dense vector p_rhs_global is stored
 is stored 0 foo1[OGL LOG][Proc: 0]gather_RHS : 137931 mu s
[OGL LOG][Proc: 0]gather_global_matrix : 1 mu s
[OGL LOG][Proc: 0]init_precond : 6 mu s
[OGL LOG][Proc: 0]generate_solver : 2 mu s
[OGL LOG][Proc: 0]solve : 142073784 mu s
[OGL LOG][Proc: 0]retrieve_result_from_device : 157196 mu s
nonehipGKOBiCGStab:  Solving for p, Initial residual = 0.987713, Final residual = 4.21949e-07, No Iterations 4186
linear solve p 142612144
time step continuity errors : sum local = 1.18201e-09, global = -1.52253e-21, cumulative = -1.13614e-19
[OGL LOG][Proc: 0]global_index_init : 431 mu s
[OGL LOG][Proc: 0]global_index_init : 3 mu s
[OGL LOG][Proc: 0]global_index_init : 4 mu s
[OGL LOG][Proc: 0]global_index_init : 4 mu s
[OGL LOG][Proc: 0]update_host_matrix_data : 163026 mu s
[OGL LOG][Proc: 0][DevicePersistentArray.H:231] !!!! check if global dense vector p_solution_global is stored
 is stored 1 foo1[OGL LOG][Proc: 0][DevicePersistentArray.H:237] global dense vector p_solution_global stored, retrieving from object registry
[OGL LOG][Proc: 0]gather_initGuess : 33 mu s
[OGL LOG][Proc: 0][DevicePersistentArray.H:231] !!!! check if global dense vector p_rhs_global is stored
 is stored 0 foo1[OGL LOG][Proc: 0]gather_RHS : 137205 mu s
[OGL LOG][Proc: 0]gather_global_matrix : 1 mu s
[OGL LOG][Proc: 0]init_precond : 6 mu s
[OGL LOG][Proc: 0]generate_solver : 2 mu s
[OGL LOG][Proc: 0]solve : 143994168 mu s
[OGL LOG][Proc: 0]retrieve_result_from_device : 155749 mu s
nonehipGKOBiCGStab:  Solving for p, Initial residual = 0.933073, Final residual = 8.46933e-07, No Iterations 4175
linear solve p 144528028
time step continuity errors : sum local = 2.57392e-09, global = 4.39285e-22, cumulative = -1.13174e-19
ExecutionTime = 1500.83 s  ClockTime = 1483 s

Time = 0.00075

Courant Number mean: 0.0406873 max: 1.1068
DILUPBiCGStab:  Solving for Ux, Initial residual = 0.0716239, Final residual = 0.0147009, No Iterations 5
DILUPBiCGStab:  Solving for Uy, Initial residual = 0.519144, Final residual = 0.0748282, No Iterations 5
DILUPBiCGStab:  Solving for Uz, Initial residual = 0.932989, Final residual = 0.117951, No Iterations 5
linear solve U 6970784
[OGL LOG][Proc: 0]global_index_init : 39 mu s
[OGL LOG][Proc: 0]global_index_init : 3 mu s
[OGL LOG][Proc: 0]global_index_init : 5 mu s
[OGL LOG][Proc: 0]global_index_init : 4 mu s
[OGL LOG][Proc: 0]update_host_matrix_data : 162242 mu s
[OGL LOG][Proc: 0][DevicePersistentArray.H:231] !!!! check if global dense vector p_solution_global is stored
 is stored 1 foo1[OGL LOG][Proc: 0][DevicePersistentArray.H:237] global dense vector p_solution_global stored, retrieving from object registry
[OGL LOG][Proc: 0]gather_initGuess : 31 mu s
[OGL LOG][Proc: 0][DevicePersistentArray.H:231] !!!! check if global dense vector p_rhs_global is stored
 is stored 0 foo1[OGL LOG][Proc: 0]gather_RHS : 137224 mu s
[OGL LOG][Proc: 0]gather_global_matrix : 1 mu s
[OGL LOG][Proc: 0]init_precond : 6 mu s
[OGL LOG][Proc: 0]generate_solver : 2 mu s
[OGL LOG][Proc: 0]solve : 111074054 mu s
[OGL LOG][Proc: 0]retrieve_result_from_device : 148078 mu s
nonehipGKOBiCGStab:  Solving for p, Initial residual = 0.991882, Final residual = 9.88069e-07, No Iterations 3257
linear solve p 111600093
time step continuity errors : sum local = 6.73034e-07, global = 1.48231e-21, cumulative = -1.11692e-19
[OGL LOG][Proc: 0]global_index_init : 456 mu s
[OGL LOG][Proc: 0]global_index_init : 3 mu s
[OGL LOG][Proc: 0]global_index_init : 4 mu s
[OGL LOG][Proc: 0]global_index_init : 4 mu s
[OGL LOG][Proc: 0]update_host_matrix_data : 162919 mu s
[OGL LOG][Proc: 0][DevicePersistentArray.H:231] !!!! check if global dense vector p_solution_global is stored
 is stored 1 foo1[OGL LOG][Proc: 0][DevicePersistentArray.H:237] global dense vector p_solution_global stored, retrieving from object registry
[OGL LOG][Proc: 0]gather_initGuess : 32 mu s
[OGL LOG][Proc: 0][DevicePersistentArray.H:231] !!!! check if global dense vector p_rhs_global is stored
 is stored 0 foo1[OGL LOG][Proc: 0]gather_RHS : 137330 mu s
[OGL LOG][Proc: 0]gather_global_matrix : 1 mu s
[OGL LOG][Proc: 0]init_precond : 6 mu s
[OGL LOG][Proc: 0]generate_solver : 2 mu s
[OGL LOG][Proc: 0]solve : 124053727 mu s
[OGL LOG][Proc: 0]retrieve_result_from_device : 154573 mu s
nonehipGKOBiCGStab:  Solving for p, Initial residual = 0.937718, Final residual = 6.72952e-07, No Iterations 3575
linear solve p 124587330
time step continuity errors : sum local = 1.93749e-09, global = 1.1109e-21, cumulative = -1.10581e-19
ExecutionTime = 1755.44 s  ClockTime = 1731 s

End

Finalising parallel run
 is stored 0 foo1 is stored 0 foo1 is stored 1 foo1 is stored 0 foo1 is stored 1 foo1 is stored 0 foo1 is stored 1 foo1 is stored 0 foo1 is stored 1 foo1 is stored 0 foo1 is stored 1 foo1 is stored 0 foo1 is stored 0 foo1 is stored 0 foo1 is stored 1 foo1 is stored 0 foo1 is stored 1 foo1 is stored 0 foo1 is stored 1 foo1 is stored 0 foo1 is stored 1 foo1 is stored 0 foo1 is stored 1 foo1 is stored 0 foo1 is stored 0 foo1 is stored 0 foo1 is stored 1 foo1 is stored 0 foo1 is stored 1 foo1 is stored 0 foo1 is stored 1 foo1 is stored 0 foo1 is stored 1 foo1 is stored 0 foo1 is stored 1 foo1 is stored 0 foo1 is stored 0 foo1 is stored 0 foo1 is stored 1 foo1 is stored 0 foo1 is stored 1 foo1 is stored 0 foo1 is stored 1 foo1 is stored 0 foo1 is stored 1 foo1 is stored 0 foo1 is stored 1 foo1 is stored 0 foo1 is stored 0 foo1 is stored 0 foo1 is stored 1 foo1 is stored 0 foo1 is stored 1 foo1 is stored 0 foo1 is stored 1 foo1 is stored 0 foo1 is stored 1 foo1 is stored 0 foo1 is stored 1 foo1 is stored 0 foo1 is stored 0 foo1 is stored 0 foo1 is stored 1 foo1 is stored 0 foo1 is stored 1 foo1 is stored 0 foo1 is stored 1 foo1 is stored 0 foo1 is stored 1 foo1 is stored 0 foo1 is stored 1 foo1 is stored 0 foo1 is stored 0 foo1 is stored 0 foo1 is stored 1 foo1 is stored 0 foo1 is stored 1 foo1 is stored 0 foo1 is stored 1 foo1 is stored 0 foo1 is stored 1 foo1 is stored 0 foo1 is stored 1 foo1 is stored 0 foo1================================================================================
hash: bc64caced8a48e3fb8da2d8c550be76e
/*---------------------------------------------------------------------------*\
| =========                 |                                                 |
| \\      /  F ield         | OpenFOAM: The Open Source CFD Toolbox           |
|  \\    /   O peration     | Version:  v2106                                 |
|   \\  /    A nd           | Website:  www.openfoam.com                      |
|    \\/     M anipulation  |                                                 |
\*---------------------------------------------------------------------------*/
Build  : f815a12bba-20210902 OPENFOAM=2106
Arch   : "LSB;label=32;scalar=64"
Exec   : icoFoam -parallel
Date   : Jan 27 2022
Time   : 04:11:55
Host   : nla-gpu2.ianm.kit.edu
PID    : 3019700
I/O    : uncollated
Case   : /home/greole/data/code/ogl_labbook/lidDrivenCavity3D/solver/Variation_mesh/400/Variation_matrix_solver/CG_NoPrecond_HIP/Variation_mpiRank/16/base
nProcs : 16
Hosts  :
(
    (nla-gpu2.ianm.kit.edu 16)
)
Pstream initialized with:
    floatTransfer      : 0
    nProcsSimpleSum    : 0
    commsType          : nonBlocking
    polling iterations : 0
trapFpe: Floating point exception trapping enabled (FOAM_SIGFPE).
fileModificationChecking : Monitoring run-time modified files using timeStampMaster (fileModificationSkew 5, maxFileModificationPolls 20)
allowSystemOperations : Allowing user-supplied system call operations

// * * * * * * * * * * * * * * * * * * * * * * * * * * * * * * * * * * * * * //
Create time

Create mesh for time = 0


PISO: Operating solver in PISO mode

Reading transportProperties

Reading field p

Reading field U

Reading/calculating face flux field phi


Starting time loop

Time = 0.00025

Courant Number mean: 0 max: 0
DILUPBiCGStab:  Solving for Ux, Initial residual = 1, Final residual = 0.0338351, No Iterations 5
DILUPBiCGStab:  Solving for Uy:  solution singularity
DILUPBiCGStab:  Solving for Uz:  solution singularity
linear solve U 2127743
[OGL LOG][Proc: 0]global_index_init : 60432 mu s
[OGL LOG][Proc: 0]global_index_init : 4 mu s
[OGL LOG][Proc: 0]global_index_init : 3 mu s
[OGL LOG][Proc: 0]global_index_init : 4 mu s
[OGL LOG][Proc: 0]init_host_sparsity_pattern : 266364323 mu s
[OGL LOG][Proc: 0]update_host_matrix_data : 127332 mu s
[OGL LOG][Proc: 0]convert_coo_to_csr : 18977 mu s
[OGL LOG][Proc: 0][DevicePersistentArray.H:231] !!!! check if global dense vector p_solution_global is stored
 is stored 0 foo1[OGL LOG][Proc: 0][DevicePersistentArray.H:257] Store global dense vector p_solution_global 
[OGL LOG][Proc: 0]gather_initGuess : 1550898 mu s
[OGL LOG][Proc: 0][DevicePersistentArray.H:231] !!!! check if global dense vector p_rhs_global is stored
 is stored 0 foo1[OGL LOG][Proc: 0]gather_RHS : 390345 mu s
[OGL LOG][Proc: 0]gather_global_matrix : 0 mu s
[OGL LOG][Proc: 0]init_precond : 21 mu s
[OGL LOG][Proc: 0]generate_solver : 22 mu s
[OGL LOG][Proc: 0]solve : 240879889 mu s
[OGL LOG][Proc: 0]retrieve_result_from_device : 608206 mu s
nonehipGKOCG:  Solving for p, Initial residual = 1, Final residual = 9.95202e-07, No Iterations 3559
linear solve p 704421665
time step continuity errors : sum local = 5.96125e-11, global = 2.52127e-21, cumulative = 2.52127e-21
[OGL LOG][Proc: 0]global_index_init : 440 mu s
[OGL LOG][Proc: 0]global_index_init : 4 mu s
[OGL LOG][Proc: 0]global_index_init : 6 mu s
[OGL LOG][Proc: 0]global_index_init : 6 mu s
[OGL LOG][Proc: 0]update_host_matrix_data : 116787 mu s
[OGL LOG][Proc: 0][DevicePersistentArray.H:231] !!!! check if global dense vector p_solution_global is stored
 is stored 1 foo1[OGL LOG][Proc: 0][DevicePersistentArray.H:237] global dense vector p_solution_global stored, retrieving from object registry
[OGL LOG][Proc: 0]gather_initGuess : 33 mu s
[OGL LOG][Proc: 0][DevicePersistentArray.H:231] !!!! check if global dense vector p_rhs_global is stored
 is stored 0 foo1[OGL LOG][Proc: 0]gather_RHS : 168927 mu s
[OGL LOG][Proc: 0]gather_global_matrix : 0 mu s
[OGL LOG][Proc: 0]init_precond : 5 mu s
[OGL LOG][Proc: 0]generate_solver : 1 mu s
[OGL LOG][Proc: 0]solve : 198052872 mu s
[OGL LOG][Proc: 0]retrieve_result_from_device : 463082 mu s
nonehipGKOCG:  Solving for p, Initial residual = 0.839507, Final residual = 9.01557e-07, No Iterations 3551
linear solve p 198845824
time step continuity errors : sum local = 6.38805e-11, global = -3.78229e-22, cumulative = 2.14304e-21
ExecutionTime = 930.58 s  ClockTime = 927 s

Time = 0.0005

Courant Number mean: 0.0248803 max: 0.904423
DILUPBiCGStab:  Solving for Ux, Initial residual = 0.0982105, Final residual = 0.0228624, No Iterations 5
DILUPBiCGStab:  Solving for Uy, Initial residual = 0.574686, Final residual = 0.128718, No Iterations 5
DILUPBiCGStab:  Solving for Uz, Initial residual = 0.93835, Final residual = 0.237945, No Iterations 5
linear solve U 4163341
[OGL LOG][Proc: 0]global_index_init : 79 mu s
[OGL LOG][Proc: 0]global_index_init : 4 mu s
[OGL LOG][Proc: 0]global_index_init : 7 mu s
[OGL LOG][Proc: 0]global_index_init : 6 mu s
[OGL LOG][Proc: 0]update_host_matrix_data : 118576 mu s
[OGL LOG][Proc: 0][DevicePersistentArray.H:231] !!!! check if global dense vector p_solution_global is stored
 is stored 1 foo1[OGL LOG][Proc: 0][DevicePersistentArray.H:237] global dense vector p_solution_global stored, retrieving from object registry
[OGL LOG][Proc: 0]gather_initGuess : 28 mu s
[OGL LOG][Proc: 0][DevicePersistentArray.H:231] !!!! check if global dense vector p_rhs_global is stored
 is stored 0 foo1[OGL LOG][Proc: 0]gather_RHS : 188436 mu s
[OGL LOG][Proc: 0]gather_global_matrix : 0 mu s
[OGL LOG][Proc: 0]init_precond : 4 mu s
[OGL LOG][Proc: 0]generate_solver : 1 mu s
[OGL LOG][Proc: 0]solve : 199777300 mu s
[OGL LOG][Proc: 0]retrieve_result_from_device : 381302 mu s
nonehipGKOCG:  Solving for p, Initial residual = 0.94266, Final residual = 3.14024e-07, No Iterations 3551
[...]
[OGL LOG][Proc: 0]convert_coo_to_csr : 19328 mu s
[OGL LOG][Proc: 0][DevicePersistentArray.H:231] !!!! check if global dense vector p_solution_global is stored
 is stored 0 foo1[OGL LOG][Proc: 0][DevicePersistentArray.H:257] Store global dense vector p_solution_global 
[OGL LOG][Proc: 0]gather_initGuess : 4583694 mu s
[OGL LOG][Proc: 0][DevicePersistentArray.H:231] !!!! check if global dense vector p_rhs_global is stored
 is stored 0 foo1[OGL LOG][Proc: 0]gather_RHS : 119790 mu s
[OGL LOG][Proc: 0]gather_global_matrix : 1 mu s
[OGL LOG][Proc: 0]init_precond : 22 mu s
[OGL LOG][Proc: 0]generate_solver : 22 mu s
[OGL LOG][Proc: 0]solve : 65600295 mu s
[OGL LOG][Proc: 0]retrieve_result_from_device : 150055 mu s
nonehipGKOCG:  Solving for p, Initial residual = 1, Final residual = 9.88891e-07, No Iterations 3542
linear solve p -2123618525
time step continuity errors : sum local = 5.56883e-11, global = 2.87956e-21, cumulative = 2.87956e-21
[OGL LOG][Proc: 0]global_index_init : 416 mu s
[OGL LOG][Proc: 0]global_index_init : 2 mu s
[OGL LOG][Proc: 0]global_index_init : 1 mu s
[OGL LOG][Proc: 0]global_index_init : 2 mu s
[OGL LOG][Proc: 0]update_host_matrix_data : 324391 mu s
[OGL LOG][Proc: 0][DevicePersistentArray.H:231] !!!! check if global dense vector p_solution_global is stored
 is stored 1 foo1[OGL LOG][Proc: 0][DevicePersistentArray.H:237] global dense vector p_solution_global stored, retrieving from object registry
[OGL LOG][Proc: 0]gather_initGuess : 63 mu s
[OGL LOG][Proc: 0][DevicePersistentArray.H:231] !!!! check if global dense vector p_rhs_global is stored
 is stored 0 foo1[OGL LOG][Proc: 0]gather_RHS : 126998 mu s
[OGL LOG][Proc: 0]gather_global_matrix : 1 mu s
[OGL LOG][Proc: 0]init_precond : 6 mu s
[OGL LOG][Proc: 0]generate_solver : 3 mu s
[OGL LOG][Proc: 0]solve : 65104454 mu s
[OGL LOG][Proc: 0]retrieve_result_from_device : 135078 mu s
nonehipGKOCG:  Solving for p, Initial residual = 0.836373, Final residual = 1.48596e-07, No Iterations 3667
linear solve p 65823527
time step continuity errors : sum local = 9.95818e-12, global = 1.63162e-22, cumulative = 3.04272e-21
ExecutionTime = 2329.38 s  ClockTime = 2328 s

Time = 0.0005

Courant Number mean: 0.0250855 max: 0.904223
DILUPBiCGStab:  Solving for Ux, Initial residual = 0.0981371, Final residual = 0.0223705, No Iterations 5
DILUPBiCGStab:  Solving for Uy, Initial residual = 0.574074, Final residual = 0.123448, No Iterations 5
DILUPBiCGStab:  Solving for Uz, Initial residual = 0.985622, Final residual = 0.243081, No Iterations 5
linear solve U 13866511
[OGL LOG][Proc: 0]global_index_init : 204 mu s
[OGL LOG][Proc: 0]global_index_init : 2 mu s
[OGL LOG][Proc: 0]global_index_init : 2 mu s
[OGL LOG][Proc: 0]global_index_init : 2 mu s
[OGL LOG][Proc: 0]update_host_matrix_data : 325152 mu s
[OGL LOG][Proc: 0][DevicePersistentArray.H:231] !!!! check if global dense vector p_solution_global is stored
 is stored 1 foo1[OGL LOG][Proc: 0][DevicePersistentArray.H:237] global dense vector p_solution_global stored, retrieving from object registry
[OGL LOG][Proc: 0]gather_initGuess : 38 mu s
[OGL LOG][Proc: 0][DevicePersistentArray.H:231] !!!! check if global dense vector p_rhs_global is stored
 is stored 0 foo1[OGL LOG][Proc: 0]gather_RHS : 117797 mu s
[OGL LOG][Proc: 0]gather_global_matrix : 1 mu s
[OGL LOG][Proc: 0]init_precond : 7 mu s
[OGL LOG][Proc: 0]generate_solver : 2 mu s
[OGL LOG][Proc: 0]solve : 64952581 mu s
[OGL LOG][Proc: 0]retrieve_result_from_device : 121903 mu s
nonehipGKOCG:  Solving for p, Initial residual = 0.939521, Final residual = 1.90376e-07, No Iterations 3651
linear solve p 65673841
time step continuity errors : sum local = 4.15483e-11, global = 6.2627e-22, cumulative = 3.66899e-21
[OGL LOG][Proc: 0]global_index_init : 26 mu s
[OGL LOG][Proc: 0]global_index_init : 9 mu s
[OGL LOG][Proc: 0]global_index_init : 1 mu s
[OGL LOG][Proc: 0]global_index_init : 2 mu s
[OGL LOG][Proc: 0]update_host_matrix_data : 324344 mu s
[OGL LOG][Proc: 0][DevicePersistentArray.H:231] !!!! check if global dense vector p_solution_global is stored
 is stored 1 foo1[OGL LOG][Proc: 0][DevicePersistentArray.H:237] global dense vector p_solution_global stored, retrieving from object registry
[OGL LOG][Proc: 0]gather_initGuess : 35 mu s
[OGL LOG][Proc: 0][DevicePersistentArray.H:231] !!!! check if global dense vector p_rhs_global is stored
 is stored 0 foo1[OGL LOG][Proc: 0]gather_RHS : 118763 mu s
[OGL LOG][Proc: 0]gather_global_matrix : 0 mu s
[OGL LOG][Proc: 0]init_precond : 6 mu s
[OGL LOG][Proc: 0]generate_solver : 1 mu s
[OGL LOG][Proc: 0]solve : 64712172 mu s
[OGL LOG][Proc: 0]retrieve_result_from_device : 130635 mu s
nonehipGKOCG:  Solving for p, Initial residual = 0.895059, Final residual = 9.91328e-07, No Iterations 3505
linear solve p 65443031
time step continuity errors : sum local = 2.2059e-10, global = -9.11631e-23, cumulative = 3.57783e-21
ExecutionTime = 2487.39 s  ClockTime = 2482 s

Time = 0.00075

Courant Number mean: 0.0406438 max: 1.10933
DILUPBiCGStab:  Solving for Ux, Initial residual = 0.0636264, Final residual = 0.0116203, No Iterations 5
DILUPBiCGStab:  Solving for Uy, Initial residual = 0.44765, Final residual = 0.0585824, No Iterations 5
DILUPBiCGStab:  Solving for Uz, Initial residual = 0.876354, Final residual = 0.167806, No Iterations 5
linear solve U 13865890
[OGL LOG][Proc: 0]global_index_init : 24 mu s
[OGL LOG][Proc: 0]global_index_init : 10 mu s
[OGL LOG][Proc: 0]global_index_init : 2 mu s
[OGL LOG][Proc: 0]global_index_init : 2 mu s
[OGL LOG][Proc: 0]update_host_matrix_data : 324672 mu s
[OGL LOG][Proc: 0][DevicePersistentArray.H:231] !!!! check if global dense vector p_solution_global is stored
 is stored 1 foo1[OGL LOG][Proc: 0][DevicePersistentArray.H:237] global dense vector p_solution_global stored, retrieving from object registry
[OGL LOG][Proc: 0]gather_initGuess : 38 mu s
[OGL LOG][Proc: 0][DevicePersistentArray.H:231] !!!! check if global dense vector p_rhs_global is stored
 is stored 0 foo1[OGL LOG][Proc: 0]gather_RHS : 118546 mu s
[OGL LOG][Proc: 0]gather_global_matrix : 1 mu s
[OGL LOG][Proc: 0]init_precond : 6 mu s
[OGL LOG][Proc: 0]generate_solver : 1 mu s
[OGL LOG][Proc: 0]solve : 62683275 mu s
[OGL LOG][Proc: 0]retrieve_result_from_device : 143662 mu s
nonehipGKOCG:  Solving for p, Initial residual = 0.970342, Final residual = 8.54447e-07, No Iterations 3501
linear solve p 63426286
time step continuity errors : sum local = 3.17247e-10, global = 7.38323e-23, cumulative = 3.65166e-21
[OGL LOG][Proc: 0]global_index_init : 404 mu s
[OGL LOG][Proc: 0]global_index_init : 3 mu s
[OGL LOG][Proc: 0]global_index_init : 1 mu s
[OGL LOG][Proc: 0]global_index_init : 1 mu s
[OGL LOG][Proc: 0]update_host_matrix_data : 324787 mu s
[OGL LOG][Proc: 0][DevicePersistentArray.H:231] !!!! check if global dense vector p_solution_global is stored
 is stored 1 foo1[OGL LOG][Proc: 0][DevicePersistentArray.H:237] global dense vector p_solution_global stored, retrieving from object registry
[OGL LOG][Proc: 0]gather_initGuess : 38 mu s
[OGL LOG][Proc: 0][DevicePersistentArray.H:231] !!!! check if global dense vector p_rhs_global is stored
 is stored 0 foo1[OGL LOG][Proc: 0]gather_RHS : 118526 mu s
[OGL LOG][Proc: 0]gather_global_matrix : 1 mu s
[OGL LOG][Proc: 0]init_precond : 6 mu s
[OGL LOG][Proc: 0]generate_solver : 2 mu s
[OGL LOG][Proc: 0]solve : 62674545 mu s
[OGL LOG][Proc: 0]retrieve_result_from_device : 142398 mu s
nonehipGKOCG:  Solving for p, Initial residual = 0.934118, Final residual = 8.33001e-07, No Iterations 3501
linear solve p 63417015
time step continuity errors : sum local = 3.10433e-10, global = 1.05474e-21, cumulative = 4.7064e-21
ExecutionTime = 2641.03 s  ClockTime = 2631 s

End

Finalising parallel run
 is stored 0 foo1 is stored 0 foo1 is stored 1 foo1 is stored 0 foo1 is stored 1 foo1 is stored 0 foo1 is stored 1 foo1 is stored 0 foo1 is stored 1 foo1 is stored 0 foo1 is stored 1 foo1 is stored 0 foo1 is stored 0 foo1 is stored 0 foo1 is stored 1 foo1 is stored 0 foo1 is stored 1 foo1 is stored 0 foo1 is stored 1 foo1 is stored 0 foo1 is stored 1 foo1 is stored 0 foo1 is stored 1 foo1 is stored 0 foo1 is stored 0 foo1 is stored 0 foo1 is stored 1 foo1 is stored 0 foo1 is stored 1 foo1 is stored 0 foo1 is stored 1 foo1 is stored 0 foo1 is stored 1 foo1 is stored 0 foo1 is stored 1 foo1 is stored 0 foo1================================================================================
hash: a8a46e4cca3d249e18fff5edbea84850
/*---------------------------------------------------------------------------*\
| =========                 |                                                 |
| \\      /  F ield         | OpenFOAM: The Open Source CFD Toolbox           |
|  \\    /   O peration     | Version:  v2106                                 |
|   \\  /    A nd           | Website:  www.openfoam.com                      |
|    \\/     M anipulation  |                                                 |
\*---------------------------------------------------------------------------*/
Build  : f815a12bba-20210902 OPENFOAM=2106
Arch   : "LSB;label=32;scalar=64"
Exec   : icoFoam -parallel
Date   : Jan 27 2022
Time   : 07:20:26
Host   : nla-gpu2.ianm.kit.edu
PID    : 3124290
I/O    : uncollated
Case   : /home/greole/data/code/ogl_labbook/lidDrivenCavity3D/solver/Variation_mesh/400/Variation_matrix_solver/CG_NoPrecond_HIP/Variation_mpiRank/8/base
nProcs : 8
Hosts  :
(
    (nla-gpu2.ianm.kit.edu 8)
)
Pstream initialized with:
    floatTransfer      : 0
    nProcsSimpleSum    : 0
    commsType          : nonBlocking
    polling iterations : 0
trapFpe: Floating point exception trapping enabled (FOAM_SIGFPE).
fileModificationChecking : Monitoring run-time modified files using timeStampMaster (fileModificationSkew 5, maxFileModificationPolls 20)
allowSystemOperations : Allowing user-supplied system call operations

// * * * * * * * * * * * * * * * * * * * * * * * * * * * * * * * * * * * * * //
Create time

Create mesh for time = 0


PISO: Operating solver in PISO mode

Reading transportProperties

Reading field p

Reading field U

Reading/calculating face flux field phi


Starting time loop

Time = 0.00025

Courant Number mean: 0 max: 0
DILUPBiCGStab:  Solving for Ux, Initial residual = 1, Final residual = 0.0332331, No Iterations 5
DILUPBiCGStab:  Solving for Uy:  solution singularity
DILUPBiCGStab:  Solving for Uz:  solution singularity
linear solve U 3627683
[OGL LOG][Proc: 0]global_index_init : 33048 mu s
[OGL LOG][Proc: 0]global_index_init : 4 mu s
[OGL LOG][Proc: 0]global_index_init : 4 mu s
[OGL LOG][Proc: 0]global_index_init : 4 mu s
[OGL LOG][Proc: 0]init_host_sparsity_pattern : 761018332 mu s
[OGL LOG][Proc: 0]update_host_matrix_data : 211823 mu s
[OGL LOG][Proc: 0]convert_coo_to_csr : 19354 mu s
[OGL LOG][Proc: 0][DevicePersistentArray.H:231] !!!! check if global dense vector p_solution_global is stored
 is stored 0 foo1[OGL LOG][Proc: 0][DevicePersistentArray.H:257] Store global dense vector p_solution_global 
[OGL LOG][Proc: 0]gather_initGuess : 2626480 mu s
[OGL LOG][Proc: 0][DevicePersistentArray.H:231] !!!! check if global dense vector p_rhs_global is stored
 is stored 0 foo1[OGL LOG][Proc: 0]gather_RHS : 137846 mu s
[OGL LOG][Proc: 0]gather_global_matrix : 0 mu s
[OGL LOG][Proc: 0]init_precond : 26 mu s
[OGL LOG][Proc: 0]generate_solver : 18 mu s
[OGL LOG][Proc: 0]solve : 67024079 mu s
[OGL LOG][Proc: 0]retrieve_result_from_device : 132408 mu s
nonehipGKOCG:  Solving for p, Initial residual = 1, Final residual = 9.85559e-07, No Iterations 3644
linear solve p 912425037
time step continuity errors : sum local = 5.53734e-11, global = -4.95823e-22, cumulative = -4.95823e-22
[OGL LOG][Proc: 0]global_index_init : 1584 mu s
[OGL LOG][Proc: 0]global_index_init : 4 mu s
[OGL LOG][Proc: 0]global_index_init : 6 mu s
[OGL LOG][Proc: 0]global_index_init : 3 mu s
[OGL LOG][Proc: 0]update_host_matrix_data : 186194 mu s
[OGL LOG][Proc: 0][DevicePersistentArray.H:231] !!!! check if global dense vector p_solution_global is stored
 is stored 1 foo1[OGL LOG][Proc: 0][DevicePersistentArray.H:237] global dense vector p_solution_global stored, retrieving from object registry
[OGL LOG][Proc: 0]gather_initGuess : 51 mu s
[OGL LOG][Proc: 0][DevicePersistentArray.H:231] !!!! check if global dense vector p_rhs_global is stored
 is stored 0 foo1[OGL LOG][Proc: 0]gather_RHS : 147540 mu s
[OGL LOG][Proc: 0]gather_global_matrix : 0 mu s
[OGL LOG][Proc: 0]init_precond : 7 mu s
[OGL LOG][Proc: 0]generate_solver : 2 mu s
[OGL LOG][Proc: 0]solve : 66772272 mu s
[OGL LOG][Proc: 0]retrieve_result_from_device : 143388 mu s
nonehipGKOCG:  Solving for p, Initial residual = 0.835498, Final residual = 2.83792e-07, No Iterations 3771
linear solve p 67330083
time step continuity errors : sum local = 1.89908e-11, global = 3.25241e-22, cumulative = -1.70582e-22
ExecutionTime = 1027.54 s  ClockTime = 1025 s

Time = 0.0005

Courant Number mean: 0.0249981 max: 0.903906
DILUPBiCGStab:  Solving for Ux, Initial residual = 0.0981542, Final residual = 0.0224966, No Iterations 5
DILUPBiCGStab:  Solving for Uy, Initial residual = 0.574372, Final residual = 0.12607, No Iterations 5
DILUPBiCGStab:  Solving for Uz, Initial residual = 0.976392, Final residual = 0.241031, No Iterations 5
linear solve U 7105437
[OGL LOG][Proc: 0]global_index_init : 3216 mu s
[OGL LOG][Proc: 0]global_index_init : 5 mu s
[OGL LOG][Proc: 0]global_index_init : 5 mu s
[OGL LOG][Proc: 0]global_index_init : 4 mu s
[OGL LOG][Proc: 0]update_host_matrix_data : 167191 mu s
[OGL LOG][Proc: 0][DevicePersistentArray.H:231] !!!! check if global dense vector p_solution_global is stored
 is stored 1 foo1[OGL LOG][Proc: 0][DevicePersistentArray.H:237] global dense vector p_solution_global stored, retrieving from object registry
[OGL LOG][Proc: 0]gather_initGuess : 41 mu s
[OGL LOG][Proc: 0][DevicePersistentArray.H:231] !!!! check if global dense vector p_rhs_global is stored
 is stored 0 foo1[OGL LOG][Proc: 0]gather_RHS : 137297 mu s
[OGL LOG][Proc: 0]gather_global_matrix : 1 mu s
[OGL LOG][Proc: 0]init_precond : 5 mu s
[OGL LOG][Proc: 0]generate_solver : 1 mu s
[OGL LOG][Proc: 0]solve : 67421277 mu s
[OGL LOG][Proc: 0]retrieve_result_from_device : 149194 mu s
nonehipGKOCG:  Solving for p, Initial residual = 0.939412, Final residual = 1.92925e-07, No Iterations 3751
linear solve p 67958894
time step continuity errors : sum local = 4.20129e-11, global = -3.94377e-22, cumulative = -5.64959e-22
[OGL LOG][Proc: 0]global_index_init : 3229 mu s
[OGL LOG][Proc: 0]global_index_init : 3 mu s
[OGL LOG][Proc: 0]global_index_init : 5 mu s
[OGL LOG][Proc: 0]global_index_init : 4 mu s
[OGL LOG][Proc: 0]update_host_matrix_data : 162071 mu s
[OGL LOG][Proc: 0][DevicePersistentArray.H:231] !!!! check if global dense vector p_solution_global is stored
 is stored 1 foo1[OGL LOG][Proc: 0][DevicePersistentArray.H:237] global dense vector p_solution_global stored, retrieving from object registry
[OGL LOG][Proc: 0]gather_initGuess : 36 mu s
[OGL LOG][Proc: 0][DevicePersistentArray.H:231] !!!! check if global dense vector p_rhs_global is stored
 is stored 0 foo1[OGL LOG][Proc: 0]gather_RHS : 137337 mu s
[OGL LOG][Proc: 0]gather_global_matrix : 1 mu s
[OGL LOG][Proc: 0]init_precond : 6 mu s
[OGL LOG][Proc: 0]generate_solver : 2 mu s
[OGL LOG][Proc: 0]solve : 71223923 mu s
[OGL LOG][Proc: 0]retrieve_result_from_device : 151457 mu s
nonehipGKOCG:  Solving for p, Initial residual = 0.894577, Final residual = 1.81217e-07, No Iterations 3751
linear solve p 71760232
time step continuity errors : sum local = 4.02425e-11, global = -6.54191e-22, cumulative = -1.21915e-21
ExecutionTime = 1182.92 s  ClockTime = 1176 s

Time = 0.00075

Courant Number mean: 0.0405234 max: 1.11034
DILUPBiCGStab:  Solving for Ux, Initial residual = 0.0634788, Final residual = 0.0117727, No Iterations 5
DILUPBiCGStab:  Solving for Uy, Initial residual = 0.447073, Final residual = 0.0596303, No Iterations 5
DILUPBiCGStab:  Solving for Uz, Initial residual = 0.866448, Final residual = 0.165243, No Iterations 5
linear solve U 7082094
[OGL LOG][Proc: 0]global_index_init : 2578 mu s
[OGL LOG][Proc: 0]global_index_init : 4 mu s
[OGL LOG][Proc: 0]global_index_init : 5 mu s
[OGL LOG][Proc: 0]global_index_init : 3 mu s
[OGL LOG][Proc: 0]update_host_matrix_data : 161913 mu s
[OGL LOG][Proc: 0][DevicePersistentArray.H:231] !!!! check if global dense vector p_solution_global is stored
 is stored 1 foo1[OGL LOG][Proc: 0][DevicePersistentArray.H:237] global dense vector p_solution_global stored, retrieving from object registry
[OGL LOG][Proc: 0]gather_initGuess : 41 mu s
[OGL LOG][Proc: 0][DevicePersistentArray.H:231] !!!! check if global dense vector p_rhs_global is stored
 is stored 0 foo1[OGL LOG][Proc: 0]gather_RHS : 137052 mu s
[OGL LOG][Proc: 0]gather_global_matrix : 1 mu s
[OGL LOG][Proc: 0]init_precond : 6 mu s
[OGL LOG][Proc: 0]generate_solver : 2 mu s
[OGL LOG][Proc: 0]solve : 67375023 mu s
[OGL LOG][Proc: 0]retrieve_result_from_device : 145863 mu s
nonehipGKOCG:  Solving for p, Initial residual = 0.970319, Final residual = 1.69872e-07, No Iterations 3751
linear solve p 67903286
time step continuity errors : sum local = 6.2927e-11, global = 8.0094e-22, cumulative = -4.1821e-22
[OGL LOG][Proc: 0]global_index_init : 3199 mu s
[OGL LOG][Proc: 0]global_index_init : 3 mu s
[OGL LOG][Proc: 0]global_index_init : 4 mu s
[OGL LOG][Proc: 0]global_index_init : 4 mu s
[OGL LOG][Proc: 0]update_host_matrix_data : 161600 mu s
[OGL LOG][Proc: 0][DevicePersistentArray.H:231] !!!! check if global dense vector p_solution_global is stored
 is stored 1 foo1[OGL LOG][Proc: 0][DevicePersistentArray.H:237] global dense vector p_solution_global stored, retrieving from object registry
[OGL LOG][Proc: 0]gather_initGuess : 37 mu s
[OGL LOG][Proc: 0][DevicePersistentArray.H:231] !!!! check if global dense vector p_rhs_global is stored
 is stored 0 foo1[OGL LOG][Proc: 0]gather_RHS : 137113 mu s
[OGL LOG][Proc: 0]gather_global_matrix : 1 mu s
[OGL LOG][Proc: 0]init_precond : 6 mu s
[OGL LOG][Proc: 0]generate_solver : 1 mu s
[OGL LOG][Proc: 0]solve : 68480142 mu s
[OGL LOG][Proc: 0]retrieve_result_from_device : 147007 mu s
nonehipGKOCG:  Solving for p, Initial residual = 0.933815, Final residual = 1.64817e-07, No Iterations 3751
linear solve p 69010519
time step continuity errors : sum local = 6.12811e-11, global = 7.63666e-22, cumulative = 3.45456e-22
ExecutionTime = 1335.4 s  ClockTime = 1325 s

End

Finalising parallel run
 is stored 0 foo1 is stored 0 foo1 is stored 1 foo1 is stored 0 foo1 is stored 1 foo1 is stored 0 foo1 is stored 1 foo1 is stored 0 foo1 is stored 1 foo1 is stored 0 foo1 is stored 1 foo1 is stored 0 foo1 is stored 0 foo1 is stored 0 foo1 is stored 1 foo1 is stored 0 foo1 is stored 1 foo1 is stored 0 foo1 is stored 1 foo1 is stored 0 foo1 is stored 1 foo1 is stored 0 foo1 is stored 1 foo1 is stored 0 foo1 is stored 0 foo1 is stored 0 foo1 is stored 1 foo1 is stored 0 foo1 is stored 1 foo1 is stored 0 foo1 is stored 1 foo1 is stored 0 foo1 is stored 1 foo1 is stored 0 foo1 is stored 1 foo1 is stored 0 foo1 is stored 0 foo1 is stored 0 foo1 is stored 1 foo1 is stored 0 foo1 is stored 1 foo1 is stored 0 foo1 is stored 1 foo1 is stored 0 foo1 is stored 1 foo1 is stored 0 foo1 is stored 1 foo1 is stored 0 foo1 is stored 0 foo1 is stored 0 foo1 is stored 1 foo1 is stored 0 foo1 is stored 1 foo1 is stored 0 foo1 is stored 1 foo1 is stored 0 foo1 is stored 1 foo1 is stored 0 foo1 is stored 1 foo1 is stored 0 foo1 is stored 0 foo1 is stored 0 foo1 is stored 1 foo1 is stored 0 foo1 is stored 1 foo1 is stored 0 foo1 is stored 1 foo1 is stored 0 foo1 is stored 1 foo1 is stored 0 foo1 is stored 1 foo1 is stored 0 foo1 is stored 0 foo1 is stored 0 foo1 is stored 1 foo1 is stored 0 foo1 is stored 1 foo1 is stored 0 foo1 is stored 1 foo1 is stored 0 foo1 is stored 1 foo1 is stored 0 foo1 is stored 1 foo1 is stored 0 foo1================================================================================
