hash: e09fee51f3305c2a7b5160c4ff9267ea
/*---------------------------------------------------------------------------*\
| =========                 |                                                 |
| \\      /  F ield         | OpenFOAM: The Open Source CFD Toolbox           |
|  \\    /   O peration     | Version:  2112                                  |
|   \\  /    A nd           | Website:  www.openfoam.com                      |
|    \\/     M anipulation  |                                                 |
\*---------------------------------------------------------------------------*/
Build  : d44c8318f0-20220111 OPENFOAM=2112 version=v2112
Arch   : "LSB;label=32;scalar=64"
Exec   : icoFoam -parallel
Date   : Sep 29 2022
Time   : 12:33:43
Host   : hkn0621.localdomain
PID    : 3734419
I/O    : uncollated
Case   : /hkfs/work/workspace/scratch/eq4036-lidDrivenCavity/single_node/mesh/400/matrix_solver/CG_NoPrecond_PETSC_CUDA/mpiRank_of/4/base
nProcs : 4
Hosts  :
(
    (hkn0621.localdomain 4)
)
Pstream initialized with:
    floatTransfer      : 0
    nProcsSimpleSum    : 0
    commsType          : nonBlocking
    polling iterations : 0
trapFpe: Floating point exception trapping enabled (FOAM_SIGFPE).
fileModificationChecking : Monitoring run-time modified files using timeStampMaster (fileModificationSkew 5, maxFileModificationPolls 20)
allowSystemOperations : Allowing user-supplied system call operations

// * * * * * * * * * * * * * * * * * * * * * * * * * * * * * * * * * * * * * //
Create time

Create mesh for time = 0


PISO: Operating solver in PISO mode

Reading transportProperties

Reading field p

Reading field U

Reading/calculating face flux field phi


Starting time loop

Time = 2.5e-05

Courant Number mean: 0 max: 0
DILUPBiCGStab:  Solving for Ux, Initial residual = 1, Final residual = 0.00118713, No Iterations 5
DILUPBiCGStab:  Solving for Uy:  solution singularity
DILUPBiCGStab:  Solving for Uz:  solution singularity
linear solve U 11325584
Initializing PETSc
PETSc-cg:  Solving for p, Initial residual = 1, Final residual = 9.99568e-05, No Iterations 3256
linear solve p 17243998
time step continuity errors : sum local = 2.40992e-10, global = 1.93226e-23, cumulative = 1.93226e-23
PETSc-cg:  Solving for p, Initial residual = 0.716144, Final residual = 9.90851e-05, No Iterations 3237
linear solve p 12878832
time step continuity errors : sum local = 3.22366e-10, global = -1.50296e-23, cumulative = 4.29294e-24
ExecutionTime = 111.21 s  ClockTime = 113 s

Time = 5e-05

Courant Number mean: 0.00116777 max: 0.0751289
DILUPBiCGStab:  Solving for Ux, Initial residual = 0.159858, Final residual = 0.000699206, No Iterations 5
DILUPBiCGStab:  Solving for Uy, Initial residual = 0.348607, Final residual = 0.000549935, No Iterations 5
DILUPBiCGStab:  Solving for Uz, Initial residual = 0.997103, Final residual = 0.00258441, No Iterations 5
linear solve U 22738828
PETSc-cg:  Solving for p, Initial residual = 0.6549, Final residual = 9.91431e-05, No Iterations 3180
linear solve p 12657602
time step continuity errors : sum local = 3.48135e-10, global = 4.66344e-23, cumulative = 5.09274e-23
PETSc-cg:  Solving for p, Initial residual = 0.580434, Final residual = 9.87729e-05, No Iterations 3175
linear solve p 12636210
time step continuity errors : sum local = 3.52812e-10, global = 4.30207e-24, cumulative = 5.52295e-23
ExecutionTime = 175.44 s  ClockTime = 178 s

Time = 7.5e-05

Courant Number mean: 0.00178106 max: 0.0870165
DILUPBiCGStab:  Solving for Ux, Initial residual = 0.0661404, Final residual = 0.000197637, No Iterations 5
DILUPBiCGStab:  Solving for Uy, Initial residual = 0.138167, Final residual = 0.000139212, No Iterations 5
DILUPBiCGStab:  Solving for Uz, Initial residual = 0.430577, Final residual = 0.00127506, No Iterations 5
linear solve U 30472357
PETSc-cg:  Solving for p, Initial residual = 0.55682, Final residual = 9.99626e-05, No Iterations 3133
linear solve p 12447591
time step continuity errors : sum local = 2.52875e-10, global = -3.20979e-23, cumulative = 2.31316e-23
PETSc-cg:  Solving for p, Initial residual = 0.499731, Final residual = 9.98415e-05, No Iterations 3123
linear solve p 12409700
time step continuity errors : sum local = 2.47345e-10, global = -2.36795e-23, cumulative = -5.47926e-25
ExecutionTime = 246.9 s  ClockTime = 249 s

Time = 0.0001

Courant Number mean: 0.00220834 max: 0.0903159
DILUPBiCGStab:  Solving for Ux, Initial residual = 0.0436882, Final residual = 8.49395e-05, No Iterations 5
DILUPBiCGStab:  Solving for Uy, Initial residual = 0.0871973, Final residual = 5.74933e-05, No Iterations 5
DILUPBiCGStab:  Solving for Uz, Initial residual = 0.132543, Final residual = 0.000248578, No Iterations 5
linear solve U 30582969
PETSc-cg:  Solving for p, Initial residual = 0.320107, Final residual = 9.99507e-05, No Iterations 1487
linear solve p 6374310
time step continuity errors : sum local = 2.30086e-10, global = 3.86694e-23, cumulative = 3.81215e-23
PETSc-cg:  Solving for p, Initial residual = 0.265675, Final residual = 9.79137e-05, No Iterations 1466
linear solve p 6298022
time step continuity errors : sum local = 2.16847e-10, global = -5.65197e-23, cumulative = -1.83982e-23
ExecutionTime = 306.48 s  ClockTime = 309 s

Time = 0.000125

Courant Number mean: 0.00255413 max: 0.0919042
DILUPBiCGStab:  Solving for Ux, Initial residual = 0.0332524, Final residual = 5.10828e-05, No Iterations 5
DILUPBiCGStab:  Solving for Uy, Initial residual = 0.0630107, Final residual = 3.67645e-05, No Iterations 5
DILUPBiCGStab:  Solving for Uz, Initial residual = 0.0910234, Final residual = 0.000139387, No Iterations 5
linear solve U 30616445
PETSc-cg:  Solving for p, Initial residual = 0.213943, Final residual = 9.96404e-05, No Iterations 1436
linear solve p 6176246
time step continuity errors : sum local = 1.92419e-10, global = 3.83676e-23, cumulative = 1.99694e-23
PETSc-cg:  Solving for p, Initial residual = 0.180194, Final residual = 9.77144e-05, No Iterations 1433
linear solve p 6163905
time step continuity errors : sum local = 1.85674e-10, global = 1.55588e-23, cumulative = 3.55281e-23
ExecutionTime = 365.7 s  ClockTime = 368 s

Time = 0.00015

Courant Number mean: 0.00284935 max: 0.0928888
DILUPBiCGStab:  Solving for Ux, Initial residual = 0.0270466, Final residual = 3.35989e-05, No Iterations 5
DILUPBiCGStab:  Solving for Uy, Initial residual = 0.0494904, Final residual = 1.57018e-05, No Iterations 5
DILUPBiCGStab:  Solving for Uz, Initial residual = 0.0794061, Final residual = 0.00010523, No Iterations 5
linear solve U 30589384
PETSc-cg:  Solving for p, Initial residual = 0.12744, Final residual = 9.88582e-05, No Iterations 1450
linear solve p 6244400
time step continuity errors : sum local = 1.97541e-10, global = -3.06115e-23, cumulative = 4.91664e-24
PETSc-cg:  Solving for p, Initial residual = 0.104997, Final residual = 9.90705e-05, No Iterations 1374
linear solve p 5944628
time step continuity errors : sum local = 1.8878e-10, global = -4.56772e-23, cumulative = -4.07605e-23
ExecutionTime = 424.78 s  ClockTime = 428 s

Time = 0.000175

Courant Number mean: 0.00310981 max: 0.0935747
DILUPBiCGStab:  Solving for Ux, Initial residual = 0.0228825, Final residual = 2.37574e-05, No Iterations 5
DILUPBiCGStab:  Solving for Uy, Initial residual = 0.0407639, Final residual = 1.42395e-05, No Iterations 5
DILUPBiCGStab:  Solving for Uz, Initial residual = 0.0674738, Final residual = 6.92919e-05, No Iterations 5
linear solve U 30600428
PETSc-cg:  Solving for p, Initial residual = 0.0871436, Final residual = 9.99367e-05, No Iterations 1426
linear solve p 6140532
time step continuity errors : sum local = 1.85716e-10, global = -2.68672e-23, cumulative = -6.76278e-23
PETSc-cg:  Solving for p, Initial residual = 0.0725682, Final residual = 9.95145e-05, No Iterations 1379
linear solve p 5995989
time step continuity errors : sum local = 1.78983e-10, global = 1.15541e-22, cumulative = 4.79134e-23
ExecutionTime = 483.76 s  ClockTime = 487 s

Time = 0.0002

Courant Number mean: 0.00334434 max: 0.094089
DILUPBiCGStab:  Solving for Ux, Initial residual = 0.0198933, Final residual = 1.84317e-05, No Iterations 5
DILUPBiCGStab:  Solving for Uy, Initial residual = 0.0346056, Final residual = 6.60725e-06, No Iterations 5
DILUPBiCGStab:  Solving for Uz, Initial residual = 0.06039, Final residual = 5.09954e-05, No Iterations 5
linear solve U 30617770
PETSc-cg:  Solving for p, Initial residual = 0.0554771, Final residual = 9.96305e-05, No Iterations 2976
linear solve p 11884924
time step continuity errors : sum local = 1.7618e-10, global = 3.59754e-23, cumulative = 8.38888e-23
PETSc-cg:  Solving for p, Initial residual = 0.0472305, Final residual = 9.82136e-05, No Iterations 1441
linear solve p 6193224
time step continuity errors : sum local = 1.89178e-10, global = -4.04259e-23, cumulative = 4.3463e-23
ExecutionTime = 548.73 s  ClockTime = 552 s

Time = 0.000225

Courant Number mean: 0.00355866 max: 0.0944924
DILUPBiCGStab:  Solving for Ux, Initial residual = 0.0176051, Final residual = 1.42018e-05, No Iterations 5
DILUPBiCGStab:  Solving for Uy, Initial residual = 0.0301065, Final residual = 6.61824e-06, No Iterations 5
DILUPBiCGStab:  Solving for Uz, Initial residual = 0.0551812, Final residual = 5.00106e-05, No Iterations 5
linear solve U 30612193
PETSc-cg:  Solving for p, Initial residual = 0.0410965, Final residual = 9.97647e-05, No Iterations 2957
linear solve p 11809399
time step continuity errors : sum local = 1.75094e-10, global = -1.2592e-22, cumulative = -8.2457e-23
PETSc-cg:  Solving for p, Initial residual = 0.0352652, Final residual = 9.9924e-05, No Iterations 2942
linear solve p 11758123
time step continuity errors : sum local = 1.75436e-10, global = 7.09708e-23, cumulative = -1.14862e-23
ExecutionTime = 619.17 s  ClockTime = 623 s

Time = 0.00025

Courant Number mean: 0.00375674 max: 0.0948201
DILUPBiCGStab:  Solving for Ux, Initial residual = 0.0158199, Final residual = 1.1564e-05, No Iterations 5
DILUPBiCGStab:  Solving for Uy, Initial residual = 0.0265883, Final residual = 4.02783e-06, No Iterations 5
DILUPBiCGStab:  Solving for Uz, Initial residual = 0.0468496, Final residual = 3.32689e-05, No Iterations 5
linear solve U 30560032
PETSc-cg:  Solving for p, Initial residual = 0.0294955, Final residual = 9.95421e-05, No Iterations 1275
linear solve p 5583321
time step continuity errors : sum local = 1.88116e-10, global = 3.74222e-23, cumulative = 2.5936e-23
PETSc-cg:  Solving for p, Initial residual = 0.0259889, Final residual = 9.98443e-05, No Iterations 1238
linear solve p 5459119
time step continuity errors : sum local = 1.80449e-10, global = 4.67357e-23, cumulative = 7.26717e-23
ExecutionTime = 677.01 s  ClockTime = 681 s

Time = 0.000275

Courant Number mean: 0.00394124 max: 0.0950931
DILUPBiCGStab:  Solving for Ux, Initial residual = 0.0143628, Final residual = 9.41863e-06, No Iterations 5
DILUPBiCGStab:  Solving for Uy, Initial residual = 0.0238301, Final residual = 3.84038e-06, No Iterations 5
DILUPBiCGStab:  Solving for Uz, Initial residual = 0.0433918, Final residual = 2.72532e-05, No Iterations 5
linear solve U 30603851
PETSc-cg:  Solving for p, Initial residual = 0.0236657, Final residual = 9.97431e-05, No Iterations 1310
linear solve p 5724049
time step continuity errors : sum local = 1.8179e-10, global = -1.31716e-23, cumulative = 5.95001e-23
PETSc-cg:  Solving for p, Initial residual = 0.0211884, Final residual = 9.94149e-05, No Iterations 1257
linear solve p 5512346
time step continuity errors : sum local = 1.73949e-10, global = -4.87579e-23, cumulative = 1.07423e-23
ExecutionTime = 735.17 s  ClockTime = 739 s

Time = 0.0003

Courant Number mean: 0.00411426 max: 0.095325
DILUPBiCGStab:  Solving for Ux, Initial residual = 0.0131683, Final residual = 7.84018e-06, No Iterations 5
DILUPBiCGStab:  Solving for Uy, Initial residual = 0.0215589, Final residual = 2.9151e-06, No Iterations 5
DILUPBiCGStab:  Solving for Uz, Initial residual = 0.0406377, Final residual = 2.47967e-05, No Iterations 5
linear solve U 30598637
PETSc-cg:  Solving for p, Initial residual = 0.0186952, Final residual = 9.90754e-05, No Iterations 1435
linear solve p 6170501
time step continuity errors : sum local = 1.90291e-10, global = 3.6458e-23, cumulative = 4.72003e-23
PETSc-cg:  Solving for p, Initial residual = 0.0171578, Final residual = 9.98082e-05, No Iterations 1346
linear solve p 5844739
time step continuity errors : sum local = 1.81153e-10, global = -5.6923e-23, cumulative = -9.72269e-24
ExecutionTime = 794.12 s  ClockTime = 798 s

Time = 0.000325

Courant Number mean: 0.00427751 max: 0.0955253
DILUPBiCGStab:  Solving for Ux, Initial residual = 0.0121499, Final residual = 6.56478e-06, No Iterations 5
DILUPBiCGStab:  Solving for Uy, Initial residual = 0.0197087, Final residual = 2.66557e-06, No Iterations 5
DILUPBiCGStab:  Solving for Uz, Initial residual = 0.0377249, Final residual = 2.38524e-05, No Iterations 5
linear solve U 30567630
PETSc-cg:  Solving for p, Initial residual = 0.0162891, Final residual = 9.88033e-05, No Iterations 1369
linear solve p 5938747
time step continuity errors : sum local = 1.84284e-10, global = -5.84326e-23, cumulative = -6.81552e-23
PETSc-cg:  Solving for p, Initial residual = 0.0150527, Final residual = 9.96534e-05, No Iterations 1279
linear solve p 5592049
time step continuity errors : sum local = 1.75248e-10, global = 9.6806e-24, cumulative = -5.84746e-23
ExecutionTime = 852.58 s  ClockTime = 857 s

Time = 0.00035

Courant Number mean: 0.00443218 max: 0.0957003
DILUPBiCGStab:  Solving for Ux, Initial residual = 0.0112931, Final residual = 5.5702e-06, No Iterations 5
DILUPBiCGStab:  Solving for Uy, Initial residual = 0.0181141, Final residual = 2.24692e-06, No Iterations 5
DILUPBiCGStab:  Solving for Uz, Initial residual = 0.0353178, Final residual = 2.37029e-05, No Iterations 5
linear solve U 30572171
PETSc-cg:  Solving for p, Initial residual = 0.014031, Final residual = 9.9371e-05, No Iterations 2903
linear solve p 11606823
time step continuity errors : sum local = 1.73197e-10, global = -4.4658e-23, cumulative = -1.03133e-22
PETSc-cg:  Solving for p, Initial residual = 0.0131357, Final residual = 9.97845e-05, No Iterations 2899
linear solve p 11597224
time step continuity errors : sum local = 1.74009e-10, global = -1.47515e-22, cumulative = -2.50647e-22
ExecutionTime = 922.63 s  ClockTime = 927 s

Time = 0.000375

Courant Number mean: 0.00457926 max: 0.0958553
DILUPBiCGStab:  Solving for Ux, Initial residual = 0.0105407, Final residual = 4.76274e-06, No Iterations 5
DILUPBiCGStab:  Solving for Uy, Initial residual = 0.0167768, Final residual = 2.03857e-06, No Iterations 5
DILUPBiCGStab:  Solving for Uz, Initial residual = 0.0312998, Final residual = 1.40455e-05, No Iterations 5
linear solve U 30573497
PETSc-cg:  Solving for p, Initial residual = 0.0127083, Final residual = 9.9742e-05, No Iterations 1182
linear solve p 5234231
time step continuity errors : sum local = 1.78866e-10, global = -1.48799e-22, cumulative = -3.99446e-22
PETSc-cg:  Solving for p, Initial residual = 0.0119415, Final residual = 9.93626e-05, No Iterations 1172
linear solve p 5212627
time step continuity errors : sum local = 1.75351e-10, global = 8.78242e-23, cumulative = -3.11622e-22
ExecutionTime = 979.93 s  ClockTime = 984 s

Time = 0.0004

Courant Number mean: 0.00471974 max: 0.0959935
DILUPBiCGStab:  Solving for Ux, Initial residual = 0.00988792, Final residual = 4.11492e-06, No Iterations 5
DILUPBiCGStab:  Solving for Uy, Initial residual = 0.0156099, Final residual = 1.84565e-06, No Iterations 5
DILUPBiCGStab:  Solving for Uz, Initial residual = 0.029745, Final residual = 1.03833e-05, No Iterations 5
linear solve U 30535131
PETSc-cg:  Solving for p, Initial residual = 0.0113714, Final residual = 9.97618e-05, No Iterations 1187
linear solve p 5253486
time step continuity errors : sum local = 1.79497e-10, global = -3.93751e-24, cumulative = -3.15559e-22
PETSc-cg:  Solving for p, Initial residual = 0.0107655, Final residual = 9.97299e-05, No Iterations 1173
linear solve p 5202549
time step continuity errors : sum local = 1.75024e-10, global = -1.13059e-22, cumulative = -4.28618e-22
ExecutionTime = 1037.23 s  ClockTime = 1042 s

Time = 0.000425

Courant Number mean: 0.00485411 max: 0.0961178
DILUPBiCGStab:  Solving for Ux, Initial residual = 0.00930808, Final residual = 3.59086e-06, No Iterations 5
DILUPBiCGStab:  Solving for Uy, Initial residual = 0.0146024, Final residual = 1.68664e-06, No Iterations 5
DILUPBiCGStab:  Solving for Uz, Initial residual = 0.0279347, Final residual = 1.05303e-05, No Iterations 5
linear solve U 30623936
PETSc-cg:  Solving for p, Initial residual = 0.0103044, Final residual = 9.96319e-05, No Iterations 1305
linear solve p 5689870
time step continuity errors : sum local = 1.80558e-10, global = 6.37381e-23, cumulative = -3.6488e-22
PETSc-cg:  Solving for p, Initial residual = 0.00976635, Final residual = 9.95567e-05, No Iterations 1274
linear solve p 5587794
time step continuity errors : sum local = 1.76228e-10, global = 4.57281e-23, cumulative = -3.19152e-22
ExecutionTime = 1095.5 s  ClockTime = 1100 s

Time = 0.00045

Courant Number mean: 0.00498313 max: 0.0962305
DILUPBiCGStab:  Solving for Ux, Initial residual = 0.00879802, Final residual = 3.16341e-06, No Iterations 5
DILUPBiCGStab:  Solving for Uy, Initial residual = 0.0137038, Final residual = 1.52968e-06, No Iterations 5
DILUPBiCGStab:  Solving for Uz, Initial residual = 0.0266951, Final residual = 1.0323e-05, No Iterations 5
linear solve U 30575912
PETSc-cg:  Solving for p, Initial residual = 0.00951857, Final residual = 9.87352e-05, No Iterations 1298
linear solve p 5664173
time step continuity errors : sum local = 1.79916e-10, global = 1.71736e-22, cumulative = -1.47415e-22
PETSc-cg:  Solving for p, Initial residual = 0.00903828, Final residual = 9.99758e-05, No Iterations 1217
linear solve p 5366930
time step continuity errors : sum local = 1.76254e-10, global = -1.69926e-22, cumulative = -3.17342e-22
ExecutionTime = 1153.37 s  ClockTime = 1158 s

Time = 0.000475

Courant Number mean: 0.00510714 max: 0.0963332
DILUPBiCGStab:  Solving for Ux, Initial residual = 0.00833534, Final residual = 2.8118e-06, No Iterations 5
DILUPBiCGStab:  Solving for Uy, Initial residual = 0.0129194, Final residual = 1.40108e-06, No Iterations 5
DILUPBiCGStab:  Solving for Uz, Initial residual = 0.0252549, Final residual = 1.07464e-05, No Iterations 5
linear solve U 30606984
PETSc-cg:  Solving for p, Initial residual = 0.00891194, Final residual = 9.96556e-05, No Iterations 1310
linear solve p 5708371
time step continuity errors : sum local = 1.83157e-10, global = 1.13039e-22, cumulative = -2.04303e-22
PETSc-cg:  Solving for p, Initial residual = 0.00846096, Final residual = 9.9887e-05, No Iterations 1284
linear solve p 5615409
time step continuity errors : sum local = 1.77563e-10, global = -3.27423e-23, cumulative = -2.37045e-22
ExecutionTime = 1211.62 s  ClockTime = 1217 s

Time = 0.0005

Courant Number mean: 0.00522673 max: 0.0964273
DILUPBiCGStab:  Solving for Ux, Initial residual = 0.00792604, Final residual = 2.51919e-06, No Iterations 5
DILUPBiCGStab:  Solving for Uy, Initial residual = 0.0122035, Final residual = 1.28424e-06, No Iterations 5
DILUPBiCGStab:  Solving for Uz, Initial residual = 0.0241053, Final residual = 1.1035e-05, No Iterations 5
linear solve U 30560715
PETSc-cg:  Solving for p, Initial residual = 0.00833041, Final residual = 9.87536e-05, No Iterations 1296
linear solve p 5654846
time step continuity errors : sum local = 1.82901e-10, global = -4.51227e-23, cumulative = -2.82168e-22
PETSc-cg:  Solving for p, Initial residual = 0.0079192, Final residual = 9.98855e-05, No Iterations 1180
linear solve p 5228586
time step continuity errors : sum local = 1.77129e-10, global = 3.31024e-23, cumulative = -2.49066e-22
ExecutionTime = 1269.3 s  ClockTime = 1274 s

End

Finalizing PETSc
Finalising parallel run
run
================================================================================
hash: ff2e48ab9e5c922d61ad82b0f2c56db9
/*---------------------------------------------------------------------------*\
| =========                 |                                                 |
| \\      /  F ield         | OpenFOAM: The Open Source CFD Toolbox           |
|  \\    /   O peration     | Version:  2112                                  |
|   \\  /    A nd           | Website:  www.openfoam.com                      |
|    \\/     M anipulation  |                                                 |
\*---------------------------------------------------------------------------*/
Build  : d44c8318f0-20220111 OPENFOAM=2112 version=v2112
Arch   : "LSB;label=32;scalar=64"
Exec   : icoFoam -parallel
Date   : Sep 29 2022
Time   : 12:33:43
Host   : hkn0727.localdomain
PID    : 2311476
I/O    : uncollated
Case   : /hkfs/work/workspace/scratch/eq4036-lidDrivenCavity/single_node/mesh/400/matrix_solver/CG_NoPrecond_Ginkgo_CUDA/mpiRank_gko/4/base
nProcs : 4
Hosts  :
(
    (hkn0727.localdomain 4)
)
Pstream initialized with:
    floatTransfer      : 0
    nProcsSimpleSum    : 0
    commsType          : nonBlocking
    polling iterations : 0
trapFpe: Floating point exception trapping enabled (FOAM_SIGFPE).
fileModificationChecking : Monitoring run-time modified files using timeStampMaster (fileModificationSkew 5, maxFileModificationPolls 20)
allowSystemOperations : Allowing user-supplied system call operations

// * * * * * * * * * * * * * * * * * * * * * * * * * * * * * * * * * * * * * //
Create time

Create mesh for time = 0


PISO: Operating solver in PISO mode

Reading transportProperties

Reading field p

Reading field U

Reading/calculating face flux field phi


Starting time loop

Time = 2.5e-05

Courant Number mean: 0 max: 0
DILUPBiCGStab:  Solving for Ux, Initial residual = 1, Final residual = 0.00118713, No Iterations 5
DILUPBiCGStab:  Solving for Uy:  solution singularity
DILUPBiCGStab:  Solving for Uz:  solution singularity
linear solve U 11055173
[OGL LOG][lduLduBase.H:107] Initialising OGL
	Version:  cac8f54
	Branch: repartition 
	Ginkgo version: 1.5.0(develop)
	MPI is GPU aware: 1
	Forces host buffer based communication: 1
	CPU ranks per GPU: 1
	Matrix format: Coo
[OGL LOG][Proc: 0]global_index_init: 0.024 [ms]
[OGL LOG][Proc: 0]global_index_init: 0.001 [ms]
[OGL LOG][Proc: 0]init_host_sparsity_pattern: 1.18692e+06 [ms]
[OGL LOG][Proc: 0]update_host_matrix_data: 1333.33 [ms]
[OGL LOG][Proc: 0]init_precond: 0.127 [ms]
[OGL LOG][StoppingCriterion.H:587] Creating stopping criterion with minIter 0 frequency 1
[OGL LOG][Proc: 0]generate_solver: 0.045 [ms]
[OGL LOG][Proc: 0]solve: 18571.9 [ms]
[OGL LOG][Proc: 0]copy_x_back: 64.329 [ms]
[OGL LOG][lduLduBase.H:294] 
Statistics:
	Time per iteration: 5702 [mu s]
	Time per residual norm calculation: 264.000000 [mu s]
	Time per iteration and DOF: 0.089094 [ns]
	Retrieve results bandwith 1.989000 [GByte/s]
nonecudaGKOCG:  Solving for p, Initial residual = 1, Final residual = 9.99662e-05, No Iterations 3257
linear solve p 1214188992
time step continuity errors : sum local = 2.41015e-10, global = 1.49604e-23, cumulative = 1.49604e-23
[OGL LOG][Proc: 0]global_index_init: 0.01 [ms]
[OGL LOG][Proc: 0]global_index_init: 0.001 [ms]
[OGL LOG][Proc: 0]update_host_matrix_data: 1205.55 [ms]
[OGL LOG][Proc: 0]init_precond: 0.038 [ms]
[OGL LOG][StoppingCriterion.H:587] Creating stopping criterion with minIter 1954 frequency 100
[OGL LOG][Proc: 0]generate_solver: 0.001 [ms]
[OGL LOG][Proc: 0]solve: 17488.9 [ms]
[OGL LOG][Proc: 0]copy_x_back: 63.969 [ms]
[OGL LOG][lduLduBase.H:294] 
Statistics:
	Time per iteration: 5298 [mu s]
	Time per residual norm calculation: 199.000000 [mu s]
	Time per iteration and DOF: 0.082781 [ns]
	Retrieve results bandwith 2.000000 [GByte/s]
nonecudaGKOCG:  Solving for p, Initial residual = 0.716144, Final residual = 4.92352e-05, No Iterations 3301
linear solve p 23970891
time step continuity errors : sum local = 1.60184e-10, global = 1.63419e-24, cumulative = 1.65945e-23
ExecutionTime = 1316.34 s  ClockTime = 1320 s

Time = 5e-05

Courant Number mean: 0.00116777 max: 0.0751289
DILUPBiCGStab:  Solving for Ux, Initial residual = 0.159858, Final residual = 0.000699206, No Iterations 5
DILUPBiCGStab:  Solving for Uy, Initial residual = 0.348607, Final residual = 0.000549934, No Iterations 5
DILUPBiCGStab:  Solving for Uz, Initial residual = 0.997139, Final residual = 0.0025837, No Iterations 5
linear solve U 22432736
[OGL LOG][Proc: 0]global_index_init: 0.012 [ms]
[OGL LOG][Proc: 0]global_index_init: 0.001 [ms]
[OGL LOG][Proc: 0]update_host_matrix_data: 1191.06 [ms]
[OGL LOG][Proc: 0]init_precond: 0.031 [ms]
[OGL LOG][StoppingCriterion.H:587] Creating stopping criterion with minIter 1980 frequency 100
[OGL LOG][Proc: 0]generate_solver: 0.001 [ms]
[OGL LOG][Proc: 0]solve: 17094.6 [ms]
[OGL LOG][Proc: 0]copy_x_back: 64.638 [ms]
[OGL LOG][lduLduBase.H:294] 
Statistics:
	Time per iteration: 5340 [mu s]
	Time per residual norm calculation: 214.000000 [mu s]
	Time per iteration and DOF: 0.083437 [ns]
	Retrieve results bandwith 1.980000 [GByte/s]
nonecudaGKOCG:  Solving for p, Initial residual = 0.654909, Final residual = 7.06919e-05, No Iterations 3201
linear solve p 23527702
time step continuity errors : sum local = 2.48218e-10, global = 1.654e-23, cumulative = 3.31346e-23
[OGL LOG][Proc: 0]global_index_init: 0.012 [ms]
[OGL LOG][Proc: 0]global_index_init: 0.001 [ms]
[OGL LOG][Proc: 0]update_host_matrix_data: 1193.8 [ms]
[OGL LOG][Proc: 0]init_precond: 0.034 [ms]
[OGL LOG][StoppingCriterion.H:587] Creating stopping criterion with minIter 1920 frequency 100
[OGL LOG][Proc: 0]generate_solver: 0.002 [ms]
[OGL LOG][Proc: 0]solve: 16978.4 [ms]
[OGL LOG][Proc: 0]copy_x_back: 64.369 [ms]
[OGL LOG][lduLduBase.H:294] 
Statistics:
	Time per iteration: 5304 [mu s]
	Time per residual norm calculation: 198.000000 [mu s]
	Time per iteration and DOF: 0.082875 [ns]
	Retrieve results bandwith 1.988000 [GByte/s]
nonecudaGKOCG:  Solving for p, Initial residual = 0.580432, Final residual = 6.43084e-05, No Iterations 3201
linear solve p 23381005
time step continuity errors : sum local = 2.29701e-10, global = 4.63884e-24, cumulative = 3.77734e-23
ExecutionTime = 1401.74 s  ClockTime = 1405 s

Time = 7.5e-05

Courant Number mean: 0.00178106 max: 0.0870165
DILUPBiCGStab:  Solving for Ux, Initial residual = 0.0661404, Final residual = 0.000197637, No Iterations 5
DILUPBiCGStab:  Solving for Uy, Initial residual = 0.138166, Final residual = 0.000139212, No Iterations 5
DILUPBiCGStab:  Solving for Uz, Initial residual = 0.429084, Final residual = 0.00126617, No Iterations 5
linear solve U 22366167
[OGL LOG][Proc: 0]global_index_init: 0.011 [ms]
[OGL LOG][Proc: 0]global_index_init: 0.001 [ms]
[OGL LOG][Proc: 0]update_host_matrix_data: 1202.64 [ms]
[OGL LOG][Proc: 0]init_precond: 0.03 [ms]
[OGL LOG][StoppingCriterion.H:587] Creating stopping criterion with minIter 1920 frequency 100
[OGL LOG][Proc: 0]generate_solver: 0.001 [ms]
[OGL LOG][Proc: 0]solve: 16859.1 [ms]
[OGL LOG][Proc: 0]copy_x_back: 64.604 [ms]
[OGL LOG][lduLduBase.H:294] 
Statistics:
	Time per iteration: 5266 [mu s]
	Time per residual norm calculation: 204.000000 [mu s]
	Time per iteration and DOF: 0.082281 [ns]
	Retrieve results bandwith 1.981000 [GByte/s]
nonecudaGKOCG:  Solving for p, Initial residual = 0.556769, Final residual = 2.90067e-05, No Iterations 3201
linear solve p 23281052
time step continuity errors : sum local = 7.33677e-11, global = 6.42449e-23, cumulative = 1.02018e-22
[OGL LOG][Proc: 0]global_index_init: 0.011 [ms]
[OGL LOG][Proc: 0]global_index_init: 0.001 [ms]
[OGL LOG][Proc: 0]update_host_matrix_data: 1209.49 [ms]
[OGL LOG][Proc: 0]init_precond: 0.037 [ms]
[OGL LOG][StoppingCriterion.H:587] Creating stopping criterion with minIter 1920 frequency 100
[OGL LOG][Proc: 0]generate_solver: 0.001 [ms]
[OGL LOG][Proc: 0]solve: 17114 [ms]
[OGL LOG][Proc: 0]copy_x_back: 63.845 [ms]
[OGL LOG][lduLduBase.H:294] 
Statistics:
	Time per iteration: 5346 [mu s]
	Time per residual norm calculation: 197.000000 [mu s]
	Time per iteration and DOF: 0.083531 [ns]
	Retrieve results bandwith 2.004000 [GByte/s]
nonecudaGKOCG:  Solving for p, Initial residual = 0.499675, Final residual = 2.62703e-05, No Iterations 3201
linear solve p 23533809
time step continuity errors : sum local = 6.50726e-11, global = -1.71524e-24, cumulative = 1.00303e-22
ExecutionTime = 1487.04 s  ClockTime = 1491 s

Time = 0.0001

Courant Number mean: 0.00220834 max: 0.0903159
DILUPBiCGStab:  Solving for Ux, Initial residual = 0.0436882, Final residual = 8.49377e-05, No Iterations 5
DILUPBiCGStab:  Solving for Uy, Initial residual = 0.0871973, Final residual = 5.74959e-05, No Iterations 5
DILUPBiCGStab:  Solving for Uz, Initial residual = 0.131747, Final residual = 0.000245399, No Iterations 5
linear solve U 22388993
[OGL LOG][Proc: 0]global_index_init: 0.011 [ms]
[OGL LOG][Proc: 0]global_index_init: 0.001 [ms]
[OGL LOG][Proc: 0]update_host_matrix_data: 1211.09 [ms]
[OGL LOG][Proc: 0]init_precond: 0.031 [ms]
[OGL LOG][StoppingCriterion.H:587] Creating stopping criterion with minIter 1920 frequency 100
[OGL LOG][Proc: 0]generate_solver: 0.001 [ms]
[OGL LOG][Proc: 0]solve: 16363.7 [ms]
[OGL LOG][Proc: 0]copy_x_back: 64.881 [ms]
[OGL LOG][lduLduBase.H:294] 
Statistics:
	Time per iteration: 5276 [mu s]
	Time per residual norm calculation: 202.000000 [mu s]
	Time per iteration and DOF: 0.082437 [ns]
	Retrieve results bandwith 1.972000 [GByte/s]
nonecudaGKOCG:  Solving for p, Initial residual = 0.31997, Final residual = 8.30799e-05, No Iterations 3101
linear solve p 22825903
time step continuity errors : sum local = 1.78753e-10, global = -2.59836e-23, cumulative = 7.43195e-23
[OGL LOG][Proc: 0]global_index_init: 0.011 [ms]
[OGL LOG][Proc: 0]global_index_init: 0.001 [ms]
[OGL LOG][Proc: 0]update_host_matrix_data: 1204.52 [ms]
[OGL LOG][Proc: 0]init_precond: 0.042 [ms]
[OGL LOG][StoppingCriterion.H:587] Creating stopping criterion with minIter 1860 frequency 100
[OGL LOG][Proc: 0]generate_solver: 0.001 [ms]
[OGL LOG][Proc: 0]solve: 16514 [ms]
[OGL LOG][Proc: 0]copy_x_back: 63.573 [ms]
[OGL LOG][lduLduBase.H:294] 
Statistics:
	Time per iteration: 5325 [mu s]
	Time per residual norm calculation: 202.000000 [mu s]
	Time per iteration and DOF: 0.083203 [ns]
	Retrieve results bandwith 2.013000 [GByte/s]
nonecudaGKOCG:  Solving for p, Initial residual = 0.265521, Final residual = 7.45422e-05, No Iterations 3101
linear solve p 22937093
time step continuity errors : sum local = 1.61582e-10, global = 1.10593e-23, cumulative = 8.53788e-23
ExecutionTime = 1571.28 s  ClockTime = 1575 s

Time = 0.000125

Courant Number mean: 0.00255413 max: 0.0919042
DILUPBiCGStab:  Solving for Ux, Initial residual = 0.0332573, Final residual = 5.10927e-05, No Iterations 5
DILUPBiCGStab:  Solving for Uy, Initial residual = 0.0629923, Final residual = 3.67507e-05, No Iterations 5
DILUPBiCGStab:  Solving for Uz, Initial residual = 0.0876125, Final residual = 0.000131702, No Iterations 5
linear solve U 22454444
================================================================================
hash: 276d210fe6b36d36f4d7428bd5c3ff47
/*---------------------------------------------------------------------------*\
| =========                 |                                                 |
| \\      /  F ield         | OpenFOAM: The Open Source CFD Toolbox           |
|  \\    /   O peration     | Version:  2112                                  |
|   \\  /    A nd           | Website:  www.openfoam.com                      |
|    \\/     M anipulation  |                                                 |
\*---------------------------------------------------------------------------*/
Build  : d44c8318f0-20220111 OPENFOAM=2112 version=v2112
Arch   : "LSB;label=32;scalar=64"
Exec   : icoFoam -parallel
Date   : Sep 29 2022
Time   : 12:33:44
Host   : hkn0619.localdomain
PID    : 125670
I/O    : uncollated
Case   : /hkfs/work/workspace/scratch/eq4036-lidDrivenCavity/single_node/mesh/300/matrix_solver/CG_NoPrecond_PETSC_CUDA/mpiRank_of/4/base
nProcs : 4
Hosts  :
(
    (hkn0619.localdomain 4)
)
Pstream initialized with:
    floatTransfer      : 0
    nProcsSimpleSum    : 0
    commsType          : nonBlocking
    polling iterations : 0
trapFpe: Floating point exception trapping enabled (FOAM_SIGFPE).
fileModificationChecking : Monitoring run-time modified files using timeStampMaster (fileModificationSkew 5, maxFileModificationPolls 20)
allowSystemOperations : Allowing user-supplied system call operations

// * * * * * * * * * * * * * * * * * * * * * * * * * * * * * * * * * * * * * //
Create time

Create mesh for time = 0


PISO: Operating solver in PISO mode

Reading transportProperties

Reading field p

Reading field U

Reading/calculating face flux field phi


Starting time loop

Time = 3.33333e-05

Courant Number mean: 0 max: 0
DILUPBiCGStab:  Solving for Ux, Initial residual = 1, Final residual = 0.000459077, No Iterations 5
DILUPBiCGStab:  Solving for Uy:  solution singularity
DILUPBiCGStab:  Solving for Uz:  solution singularity
linear solve U 4694090
Initializing PETSc
PETSc-cg:  Solving for p, Initial residual = 1, Final residual = 9.95582e-05, No Iterations 2434
linear solve p 7626520
time step continuity errors : sum local = 3.65829e-10, global = 2.65428e-22, cumulative = 2.65428e-22
PETSc-cg:  Solving for p, Initial residual = 0.688738, Final residual = 9.97636e-05, No Iterations 2411
linear solve p 4473689
time step continuity errors : sum local = 5.08095e-10, global = 7.96203e-23, cumulative = 3.45048e-22
ExecutionTime = 46.66 s  ClockTime = 48 s

Time = 6.66667e-05

Courant Number mean: 0.00132244 max: 0.0715438
DILUPBiCGStab:  Solving for Ux, Initial residual = 0.17237, Final residual = 0.000261608, No Iterations 5
DILUPBiCGStab:  Solving for Uy, Initial residual = 0.340772, Final residual = 0.000163002, No Iterations 5
DILUPBiCGStab:  Solving for Uz, Initial residual = 0.995959, Final residual = 0.000787053, No Iterations 5
linear solve U 12656303
PETSc-cg:  Solving for p, Initial residual = 0.592303, Final residual = 9.96071e-05, No Iterations 2358
linear solve p 4385528
time step continuity errors : sum local = 5.16055e-10, global = -1.72924e-22, cumulative = 1.72124e-22
PETSc-cg:  Solving for p, Initial residual = 0.512883, Final residual = 9.98358e-05, No Iterations 2353
linear solve p 4374579
time step continuity errors : sum local = 5.29269e-10, global = -1.0878e-23, cumulative = 1.61246e-22
ExecutionTime = 74.76 s  ClockTime = 76 s

Time = 0.0001

Courant Number mean: 0.00202536 max: 0.0848305
DILUPBiCGStab:  Solving for Ux, Initial residual = 0.0716932, Final residual = 7.77667e-05, No Iterations 5
DILUPBiCGStab:  Solving for Uy, Initial residual = 0.137125, Final residual = 4.17337e-05, No Iterations 5
DILUPBiCGStab:  Solving for Uz, Initial residual = 0.198074, Final residual = 0.000190066, No Iterations 5
linear solve U 12511255PPETSc-cg:  Solving for p, Initial residual = 0.420944, Final residual = 9.99872e-05, No Iterations 2304
linear solve p 4278336
time step continuity errors : sum local = 3.75789e-10, global = 4.10913e-23, cumulative = 2.02338e-22PPETSc-cg:  Solving for p, Initial residual = 0.365661, Final residual = 9.99426e-05, No Iterations 2295
linear solve p 4264181
time step continuity errors : sum local = 3.68429e-10, global = -4.64789e-23, cumulative = 1.55859e-22
ExecutionTime = 102.41 s  ClockTime = 104 s

Time = 0.000133333

Courant Number mean: 0.00251227 max: 0.088723DIDILUPBiCGStab:  Solving for Ux, Initial residual = 0.0466813, Final residual = 3.28405e-05, No Iterations DIDILUPBiCGStab:  Solving for Uy, Initial residual = 0.0862057, Final residual = 1.70484e-05, No Iterations DIDILUPBiCGStab:  Solving for Uz, Initial residual = 0.114003, Final residual = 7.09639e-05, No Iterations 5
linear solve U 934328PEPETSc-cg:  Solving for p, Initial residual = 0.209621, Final residual = 9.7955e-05, No Iterations 2307
linear solve p 4292245
time step continuity errors : sum local = 3.30694e-10, global = -3.45596e-23, cumulative = 1.21299e-2PEPETSc-cg:  Solving for p, Initial residual = 0.170621, Final residual = 9.76447e-05, No Iterations 1113
linear solve p 2260150
time step continuity errors : sum local = 3.62494e-10, global = -3.57394e-23, cumulative = 8.55597e-23
ExecutionTime = 125.02 s  ClockTime = 127 s

Time = 0.000166667

Courant Number mean: 0.00290365 max: 0.09058DILDILUPBiCGStab:  Solving for Ux, Initial residual = 0.0352208, Final residual = 1.83369e-05, No IterationsDILDILUPBiCGStab:  Solving for Uy, Initial residual = 0.0624757, Final residual = 1.10924e-05, No IterationsDILDILUPBiCGStab:  Solving for Uz, Initial residual = 0.0939565, Final residual = 4.19597e-05, No Iterations 5
linear solve U 93331PETPETSc-cg:  Solving for p, Initial residual = 0.121312, Final residual = 9.81161e-05, No Iterations 2291
linear solve p 4255244
time step continuity errors : sum local = 3.08519e-10, global = -4.08901e-23, cumulative = 4.46696e-PETPETSc-cg:  Solving for p, Initial residual = 0.100578, Final residual = 9.87342e-05, No Iterations 1082
linear solve p 2207393
time step continuity errors : sum local = 3.36243e-10, global = -6.28864e-23, cumulative = -1.82168e-23
ExecutionTime = 147.52 s  ClockTime = 150 s

Time = 0.0002

Courant Number mean: 0.00323666 max: 0.09173DILDILUPBiCGStab:  Solving for Ux, Initial residual = 0.0285053, Final residual = 1.21989e-05, No IterationsDILDILUPBiCGStab:  Solving for Uy, Initial residual = 0.0490366, Final residual = 4.93373e-06, No IterationsDILDILUPBiCGStab:  Solving for Uz, Initial residual = 0.0816991, Final residual = 3.11098e-05, No Iterations 5
linear solve U 93385PETPETSc-cg:  Solving for p, Initial residual = 0.0717094, Final residual = 9.98992e-05, No Iterations 2277
linear solve p 4242841
time step continuity errors : sum local = 3.0812e-10, global = 7.67146e-23, cumulative = 5.84978e-PETPETSc-cg:  Solving for p, Initial residual = 0.0601706, Final residual = 9.92591e-05, No Iterations 2268
linear solve p 4214951
time step continuity errors : sum local = 3.07138e-10, global = -1.61385e-22, cumulative = -1.02888e-22
ExecutionTime = 172.03 s  ClockTime = 174 s

Time = 0.000233333

Courant Number mean: 0.00352957 max: 0.09252DILDILUPBiCGStab:  Solving for Ux, Initial residual = 0.0240146, Final residual = 8.81858e-06, No IterationsDILDILUPBiCGStab:  Solving for Uy, Initial residual = 0.0403799, Final residual = 4.84473e-06, No IterationsDILDILUPBiCGStab:  Solving for Uz, Initial residual = 0.0662511, Final residual = 1.65733e-05, No Iterations 5
linear solve U 93246PETPETSc-cg:  Solving for p, Initial residual = 0.0470394, Final residual = 9.87776e-05, No Iterations 965
linear solve p 2009492
time step continuity errors : sum local = 3.08001e-10, global = -2.66297e-22, cumulative = -3.69185e-PETPETSc-cg:  Solving for p, Initial residual = 0.0402543, Final residual = 9.99832e-05, No Iterations 961
linear solve p 2001959
time step continuity errors : sum local = 3.09944e-10, global = -3.72643e-23, cumulative = -4.06449e-22
ExecutionTime = 192.07 s  ClockTime = 194 s

Time = 0.000266667

Courant Number mean: 0.00379265 max: 0.09312DILDILUPBiCGStab:  Solving for Ux, Initial residual = 0.0207914, Final residual = 7.03597e-06, No IterationsDILDILUPBiCGStab:  Solving for Uy, Initial residual = 0.0342875, Final residual = 2.79476e-06, No IterationsDILDILUPBiCGStab:  Solving for Uz, Initial residual = 0.0583501, Final residual = 1.14324e-05, No Iterations 5
linear solve U 93544PETPETSc-cg:  Solving for p, Initial residual = 0.0319986, Final residual = 9.73797e-05, No Iterations 958
linear solve p 1994827
time step continuity errors : sum local = 3.04676e-10, global = -1.84426e-22, cumulative = -5.90874e-PETPETSc-cg:  Solving for p, Initial residual = 0.0281118, Final residual = 9.89183e-05, No Iterations 947
linear solve p 1975346
time step continuity errors : sum local = 3.01066e-10, global = -2.31826e-23, cumulative = -6.14057e-22
ExecutionTime = 212.11 s  ClockTime = 214 s

Time = 0.0003

Courant Number mean: 0.00403247 max: 0.09359DILDILUPBiCGStab:  Solving for Ux, Initial residual = 0.0183529, Final residual = 5.68838e-06, No IterationsDILDILUPBiCGStab:  Solving for Uy, Initial residual = 0.0297986, Final residual = 2.69543e-06, No IterationsDILDILUPBiCGStab:  Solving for Uz, Initial residual = 0.0517604, Final residual = 8.20795e-06, No Iterations 5
linear solve U 93434PETPETSc-cg:  Solving for p, Initial residual = 0.0251604, Final residual = 9.9443e-05, No Iterations 947
linear solve p 1975397
time step continuity errors : sum local = 3.07646e-10, global = -2.54811e-22, cumulative = -8.68868e-PETPETSc-cg:  Solving for p, Initial residual = 0.0225412, Final residual = 9.99923e-05, No Iterations 935
linear solve p 1956977
time step continuity errors : sum local = 3.07318e-10, global = -7.65255e-23, cumulative = -9.45394e-22
ExecutionTime = 232.09 s  ClockTime = 234 s

Time = 0.000333333

Courant Number mean: 0.00425373 max: 0.09396DILDILUPBiCGStab:  Solving for Ux, Initial residual = 0.0164418, Final residual = 4.75291e-06, No IterationsDILDILUPBiCGStab:  Solving for Uy, Initial residual = 0.0263217, Final residual = 1.9221e-06, No IterationsDILDILUPBiCGStab:  Solving for Uz, Initial residual = 0.0469466, Final residual = 6.29935e-06, No Iterations 5
linear solve U 93444PETPETSc-cg:  Solving for p, Initial residual = 0.0194084, Final residual = 9.89766e-05, No Iterations 936
linear solve p 1959637
time step continuity errors : sum local = 3.08233e-10, global = -6.5861e-23, cumulative = -1.01125e-PETPETSc-cg:  Solving for p, Initial residual = 0.017715, Final residual = 9.94877e-05, No Iterations 912
linear solve p 1914263
time step continuity errors : sum local = 3.02973e-10, global = -2.19373e-22, cumulative = -1.23063e-21
ExecutionTime = 252.06 s  ClockTime = 254 s

Time = 0.000366667

Courant Number mean: 0.00445949 max: 0.09428DILDILUPBiCGStab:  Solving for Ux, Initial residual = 0.0148946, Final residual = 3.98795e-06, No IterationsDILDILUPBiCGStab:  Solving for Uy, Initial residual = 0.0235761, Final residual = 1.75671e-06, No IterationsDILDILUPBiCGStab:  Solving for Uz, Initial residual = 0.0425859, Final residual = 5.0882e-06, No Iterations 5
linear solve U 93314PETPETSc-cg:  Solving for p, Initial residual = 0.0166534, Final residual = 9.9612e-05, No Iterations 966
linear solve p 2010124
time step continuity errors : sum local = 3.07795e-10, global = -1.62312e-22, cumulative = -1.39294e-PETPETSc-cg:  Solving for p, Initial residual = 0.0152501, Final residual = 9.93471e-05, No Iterations 941
linear solve p 1963961
time step continuity errors : sum local = 3.04725e-10, global = 6.74198e-23, cumulative = -1.32552e-21
ExecutionTime = 272.07 s  ClockTime = 274 s

Time = 0.0004

Courant Number mean: 0.00465204 max: 0.09455DILDILUPBiCGStab:  Solving for Ux, Initial residual = 0.0136211, Final residual = 3.38125e-06, No IterationsDILDILUPBiCGStab:  Solving for Uy, Initial residual = 0.0213325, Final residual = 1.41083e-06, No IterationsDILDILUPBiCGStab:  Solving for Uz, Initial residual = 0.0392358, Final residual = 4.08423e-06, No Iterations 5
linear solve U 93448PETPETSc-cg:  Solving for p, Initial residual = 0.0142434, Final residual = 9.90837e-05, No Iterations 941
linear solve p 1974658
time step continuity errors : sum local = 3.08206e-10, global = -1.59215e-22, cumulative = -1.48474e-PETPETSc-cg:  Solving for p, Initial residual = 0.0132119, Final residual = 9.89059e-05, No Iterations 897
linear solve p 1893125
time step continuity errors : sum local = 3.01896e-10, global = -1.10043e-22, cumulative = -1.59478e-21
ExecutionTime = 292 s  ClockTime = 294 s

Time = 0.000433333

Courant Number mean: 0.00483362 max: 0.0947836
DILUPBiCGStab:  Solving for Ux, Initial residual = 0.0125474, Final residual = 2.88321e-06, No Iterations 5
DILUPBiCGStab:  Solving for Uy, Initial residual = 0.0194802, Final residual = 1.26541e-06, No Iterations 5
DILUPBiCGStab:  Solving for Uz, Initial residual = 0.0361192, Final residual = 3.52809e-06, No Iterations 5
linear solve U 9323080
PETSc-cg:  Solving for p, Initial residual = 0.0125739, Final residual = 9.89886e-05, No Iterations 977
linear solve p 2028541
time step continuity errors : sum local = 3.05836e-10, global = -2.28108e-23, cumulative = -1.61759e-21
PETSc-cg:  Solving for p, Initial residual = 0.0116707, Final residual = 9.97702e-05, No Iterations 959
linear solve p 1998283
time step continuity errors : sum local = 3.0585e-10, global = -1.89353e-23, cumulative = -1.63653e-21
ExecutionTime = 312.07 s  ClockTime = 315 s

Time = 0.000466667

Courant Number mean: 0.00500519 max: 0.0949857
DILUPBiCGStab:  Solving for Ux, Initial residual = 0.0116345, Final residual = 2.4811e-06, No Iterations 5
DILUPBiCGStab:  Solving for Uy, Initial residual = 0.0179128, Final residual = 1.08586e-06, No Iterations 5
DILUPBiCGStab:  Solving for Uz, Initial residual = 0.0335923, Final residual = 2.9057e-06, No Iterations 5
linear solve U 9339469
PETSc-cg:  Solving for p, Initial residual = 0.0113165, Final residual = 9.8892e-05, No Iterations 888
linear solve p 1876207
time step continuity errors : sum local = 3.07488e-10, global = -1.0148e-22, cumulative = -1.738e-21
PETSc-cg:  Solving for p, Initial residual = 0.0105397, Final residual = 9.8742e-05, No Iterations 876
linear solve p 1864123
time step continuity errors : sum local = 3.02052e-10, global = -1.16456e-22, cumulative = -1.85446e-21
ExecutionTime = 331.86 s  ClockTime = 334 s

Time = 0.0005

Courant Number mean: 0.0051684 max: 0.0951645
DILUPBiCGStab:  Solving for Ux, Initial residual = 0.0108432, Final residual = 2.15095e-06, No Iterations 5
DILUPBiCGStab:  Solving for Uy, Initial residual = 0.0165788, Final residual = 9.76405e-07, No Iterations 5
DILUPBiCGStab:  Solving for Uz, Initial residual = 0.0312127, Final residual = 2.62175e-06, No Iterations 5
linear solve U 9357051
PETSc-cg:  Solving for p, Initial residual = 0.0103019, Final residual = 9.82544e-05, No Iterations 960
linear solve p 1999687
time step continuity errors : sum local = 3.03428e-10, global = -1.54866e-22, cumulative = -2.00933e-21
PETSc-cg:  Solving for p, Initial residual = 0.00959262, Final residual = 9.99841e-05, No Iterations 942
linear solve p 1969533
time step continuity errors : sum local = 3.06431e-10, global = 7.8339e-24, cumulative = -2.00149e-21
ExecutionTime = 351.89 s  ClockTime = 355 s

Time = 0.000533333

Courant Number mean: 0.00532372 max: 0.0953239
DILUPBiCGStab:  Solving for Ux, Initial residual = 0.0101546, Final residual = 1.87958e-06, No Iterations 5
DILUPBiCGStab:  Solving for Uy, Initial residual = 0.0154228, Final residual = 8.69521e-07, No Iterations 5
DILUPBiCGStab:  Solving for Uz, Initial residual = 0.0293263, Final residual = 2.20703e-06, No Iterations 5
linear solve U 9410331
PETSc-cg:  Solving for p, Initial residual = 0.00941252, Final residual = 9.93053e-05, No Iterations 879
linear solve p 1866824
time step continuity errors : sum local = 3.08711e-10, global = -1.46728e-22, cumulative = -2.14822e-21
PETSc-cg:  Solving for p, Initial residual = 0.00876653, Final residual = 9.84562e-05, No Iterations 868
linear solve p 1851766
time step continuity errors : sum local = 3.01767e-10, global = 3.50632e-23, cumulative = -2.11316e-21
ExecutionTime = 371.8 s  ClockTime = 374 s

Time = 0.000566667

Courant Number mean: 0.00547243 max: 0.0954674
DILUPBiCGStab:  Solving for Ux, Initial residual = 0.00954685, Final residual = 1.65536e-06, No Iterations 5
DILUPBiCGStab:  Solving for Uy, Initial residual = 0.0144172, Final residual = 7.89876e-07, No Iterations 5
DILUPBiCGStab:  Solving for Uz, Initial residual = 0.0275018, Final residual = 2.04128e-06, No Iterations 5
linear solve U 9445071
PETSc-cg:  Solving for p, Initial residual = 0.00871052, Final residual = 9.92117e-05, No Iterations 954
linear solve p 1996800
time step continuity errors : sum local = 3.0619e-10, global = -2.09099e-22, cumulative = -2.32226e-21
PETSc-cg:  Solving for p, Initial residual = 0.0081311, Final residual = 9.98049e-05, No Iterations 939
linear solve p 1970094
time step continuity errors : sum local = 3.05833e-10, global = -2.90741e-22, cumulative = -2.613e-21
ExecutionTime = 392.05 s  ClockTime = 394 s

Time = 0.0006

Courant Number mean: 0.00561478 max: 0.0955973
DILUPBiCGStab:  Solving for Ux, Initial residual = 0.0090085, Final residual = 1.47077e-06, No Iterations 5
DILUPBiCGStab:  Solving for Uy, Initial residual = 0.0135293, Final residual = 7.18527e-07, No Iterations 5
DILUPBiCGStab:  Solving for Uz, Initial residual = 0.0259893, Final residual = 1.73993e-06, No Iterations 5
linear solve U 9438472
PETSc-cg:  Solving for p, Initial residual = 0.0080285, Final residual = 9.88782e-05, No Iterations 868
linear solve p 1856922
time step continuity errors : sum local = 3.07408e-10, global = -1.20853e-22, cumulative = -2.73385e-21
PETSc-cg:  Solving for p, Initial residual = 0.00748831, Final residual = 9.827e-05, No Iterations 857
linear solve p 1830132
time step continuity errors : sum local = 3.01705e-10, global = -2.91781e-23, cumulative = -2.76303e-21
ExecutionTime = 412 s  ClockTime = 414 s

Time = 0.000633333

Courant Number mean: 0.00575168 max: 0.0957157
DILUPBiCGStab:  Solving for Ux, Initial residual = 0.00852582, Final residual = 1.31789e-06, No Iterations 5
DILUPBiCGStab:  Solving for Uy, Initial residual = 0.0127442, Final residual = 6.59583e-07, No Iterations 5
DILUPBiCGStab:  Solving for Uz, Initial residual = 0.02453, Final residual = 1.63808e-06, No Iterations 5
linear solve U 9448945
PETSc-cg:  Solving for p, Initial residual = 0.00752611, Final residual = 9.90928e-05, No Iterations 940
linear solve p 1972519
time step continuity errors : sum local = 3.05635e-10, global = 1.02869e-22, cumulative = -2.66016e-21
PETSc-cg:  Solving for p, Initial residual = 0.00701425, Final residual = 9.94127e-05, No Iterations 905
linear solve p 1911752
time step continuity errors : sum local = 3.04593e-10, global = -1.00988e-22, cumulative = -2.76115e-21
ExecutionTime = 432.19 s  ClockTime = 434 s

Time = 0.000666667

Courant Number mean: 0.00588343 max: 0.0958242
DILUPBiCGStab:  Solving for Ux, Initial residual = 0.00809302, Final residual = 1.19165e-06, No Iterations 5
DILUPBiCGStab:  Solving for Uy, Initial residual = 0.0120411, Final residual = 6.08008e-07, No Iterations 5
DILUPBiCGStab:  Solving for Uz, Initial residual = 0.0233345, Final residual = 1.41464e-06, No Iterations 5
linear solve U 9430072
PETSc-cg:  Solving for p, Initial residual = 0.00699182, Final residual = 9.91878e-05, No Iterations 872
linear solve p 1856354
time step continuity errors : sum local = 3.08411e-10, global = 2.28439e-22, cumulative = -2.53271e-21
PETSc-cg:  Solving for p, Initial residual = 0.00651999, Final residual = 9.98641e-05, No Iterations 856
linear solve p 1831546
time step continuity errors : sum local = 3.07036e-10, global = 6.45888e-23, cumulative = -2.46812e-21
ExecutionTime = 452.14 s  ClockTime = 454 s

End

Finalizing PETSc
Finalising parallel run
run
================================================================================
hash: b49d290481d23eabe27ca828c1a5da3b
/*---------------------------------------------------------------------------*\
| =========                 |                                                 |
| \\      /  F ield         | OpenFOAM: The Open Source CFD Toolbox           |
|  \\    /   O peration     | Version:  2112                                  |
|   \\  /    A nd           | Website:  www.openfoam.com                      |
|    \\/     M anipulation  |                                                 |
\*---------------------------------------------------------------------------*/
Build  : d44c8318f0-20220111 OPENFOAM=2112 version=v2112
Arch   : "LSB;label=32;scalar=64"
Exec   : icoFoam -parallel
Date   : Sep 29 2022
Time   : 12:33:44
Host   : hkn0723.localdomain
PID    : 4128841
I/O    : uncollated
Case   : /hkfs/work/workspace/scratch/eq4036-lidDrivenCavity/single_node/mesh/300/matrix_solver/CG_NoPrecond_Ginkgo_CUDA/mpiRank_gko/4/base
nProcs : 4
Hosts  :
(
    (hkn0723.localdomain 4)
)
Pstream initialized with:
    floatTransfer      : 0
    nProcsSimpleSum    : 0
    commsType          : nonBlocking
    polling iterations : 0
trapFpe: Floating point exception trapping enabled (FOAM_SIGFPE).
fileModificationChecking : Monitoring run-time modified files using timeStampMaster (fileModificationSkew 5, maxFileModificationPolls 20)
allowSystemOperations : Allowing user-supplied system call operations

// * * * * * * * * * * * * * * * * * * * * * * * * * * * * * * * * * * * * * //
Create time

Create mesh for time = 0


PISO: Operating solver in PISO mode

Reading transportProperties

Reading field p

Reading field U

Reading/calculating face flux field phi


Starting time loop

Time = 3.33333e-05

Courant Number mean: 0 max: 0
DILUPBiCGStab:  Solving for Ux, Initial residual = 1, Final residual = 0.000459077, No Iterations 5
DILUPBiCGStab:  Solving for Uy:  solution singularity
DILUPBiCGStab:  Solving for Uz:  solution singularity
linear solve U 4652015
[OGL LOG][lduLduBase.H:107] Initialising OGL
	Version:  cac8f54
	Branch: repartition 
	Ginkgo version: 1.5.0(develop)
	MPI is GPU aware: 1
	Forces host buffer based communication: 1
	CPU ranks per GPU: 1
	Matrix format: Coo
[OGL LOG][Proc: 0]global_index_init: 0.027 [ms]
[OGL LOG][Proc: 0]global_index_init: 0.001 [ms]
[OGL LOG][Proc: 0]init_host_sparsity_pattern: 283395 [ms]
[OGL LOG][Proc: 0]update_host_matrix_data: 573.757 [ms]
[OGL LOG][Proc: 0]init_precond: 0.123 [ms]
[OGL LOG][StoppingCriterion.H:587] Creating stopping criterion with minIter 0 frequency 1
[OGL LOG][Proc: 0]generate_solver: 0.044 [ms]
[OGL LOG][Proc: 0]solve: 7254.45 [ms]
[OGL LOG][Proc: 0]copy_x_back: 27.249 [ms]
[OGL LOG][lduLduBase.H:294] 
Statistics:
	Time per iteration: 2979 [mu s]
	Time per residual norm calculation: 195.000000 [mu s]
	Time per iteration and DOF: 0.110333 [ns]
	Retrieve results bandwith 1.981000 [GByte/s]
nonecudaGKOCG:  Solving for p, Initial residual = 1, Final residual = 9.95355e-05, No Iterations 2435
linear solve p 295741271
time step continuity errors : sum local = 3.65745e-10, global = 2.33437e-22, cumulative = 2.33437e-22
[OGL LOG][Proc: 0]global_index_init: 0.009 [ms]
[OGL LOG][Proc: 0]global_index_init: 0.003 [ms]
[OGL LOG][Proc: 0]update_host_matrix_data: 512.004 [ms]
[OGL LOG][Proc: 0]init_precond: 0.031 [ms]
[OGL LOG][StoppingCriterion.H:587] Creating stopping criterion with minIter 1461 frequency 100
[OGL LOG][Proc: 0]generate_solver: 0.002 [ms]
[OGL LOG][Proc: 0]solve: 6172.37 [ms]
[OGL LOG][Proc: 0]copy_x_back: 27.391 [ms]
[OGL LOG][lduLduBase.H:294] 
Statistics:
	Time per iteration: 2467 [mu s]
	Time per residual norm calculation: 137.000000 [mu s]
	Time per iteration and DOF: 0.091370 [ns]
	Retrieve results bandwith 1.971000 [GByte/s]
nonecudaGKOCG:  Solving for p, Initial residual = 0.688738, Final residual = 1.95368e-05, No Iterations 2501
linear solve p 9015753
time step continuity errors : sum local = 9.95035e-11, global = -6.56766e-24, cumulative = 2.26869e-22
ExecutionTime = 338.04 s  ClockTime = 340 s

Time = 6.66667e-05

Courant Number mean: 0.00132244 max: 0.0715438
DILUPBiCGStab:  Solving for Ux, Initial residual = 0.17237, Final residual = 0.000261608, No Iterations 5
DILUPBiCGStab:  Solving for Uy, Initial residual = 0.340772, Final residual = 0.000163001, No Iterations 5
DILUPBiCGStab:  Solving for Uz, Initial residual = 0.996005, Final residual = 0.000786459, No Iterations 5
linear solve U 9373293
[OGL LOG][Proc: 0]global_index_init: 0.01 [ms]
[OGL LOG][Proc: 0]global_index_init: 0.001 [ms]
[OGL LOG][Proc: 0]update_host_matrix_data: 511.801 [ms]
[OGL LOG][Proc: 0]init_precond: 0.037 [ms]
[OGL LOG][StoppingCriterion.H:587] Creating stopping criterion with minIter 1500 frequency 100
[OGL LOG][Proc: 0]generate_solver: 0.002 [ms]
[OGL LOG][Proc: 0]solve: 5960.41 [ms]
[OGL LOG][Proc: 0]copy_x_back: 28.201 [ms]
[OGL LOG][lduLduBase.H:294] 
Statistics:
	Time per iteration: 2482 [mu s]
	Time per residual norm calculation: 135.000000 [mu s]
	Time per iteration and DOF: 0.091926 [ns]
	Retrieve results bandwith 1.914000 [GByte/s]
nonecudaGKOCG:  Solving for p, Initial residual = 0.592299, Final residual = 5.35656e-05, No Iterations 2401
linear solve p 8823070
time step continuity errors : sum local = 2.77496e-10, global = -9.18709e-24, cumulative = 2.17682e-22
[OGL LOG][Proc: 0]global_index_init: 0.011 [ms]
[OGL LOG][Proc: 0]global_index_init: 0.001 [ms]
[OGL LOG][Proc: 0]update_host_matrix_data: 513.414 [ms]
[OGL LOG][Proc: 0]init_precond: 0.029 [ms]
[OGL LOG][StoppingCriterion.H:587] Creating stopping criterion with minIter 1440 frequency 100
[OGL LOG][Proc: 0]generate_solver: 0.002 [ms]
[OGL LOG][Proc: 0]solve: 5954.96 [ms]
[OGL LOG][Proc: 0]copy_x_back: 27.629 [ms]
[OGL LOG][lduLduBase.H:294] 
Statistics:
	Time per iteration: 2480 [mu s]
	Time per residual norm calculation: 145.000000 [mu s]
	Time per iteration and DOF: 0.091852 [ns]
	Retrieve results bandwith 1.954000 [GByte/s]
nonecudaGKOCG:  Solving for p, Initial residual = 0.512872, Final residual = 4.57616e-05, No Iterations 2401
linear solve p 8803268
time step continuity errors : sum local = 2.42589e-10, global = 6.83516e-23, cumulative = 2.86033e-22
ExecutionTime = 371.86 s  ClockTime = 374 s

Time = 0.0001

Courant Number mean: 0.00202536 max: 0.0848305
DILUPBiCGStab:  Solving for Ux, Initial residual = 0.0716931, Final residual = 7.77683e-05, No Iterations 5
DILUPBiCGStab:  Solving for Uy, Initial residual = 0.137124, Final residual = 4.17317e-05, No Iterations 5
DILUPBiCGStab:  Solving for Uz, Initial residual = 0.195094, Final residual = 0.000183155, No Iterations 5
linear solve U 9373271
[OGL LOG][Proc: 0]global_index_init: 0.041 [ms]
[OGL LOG][Proc: 0]global_index_init: 0.001 [ms]
[OGL LOG][Proc: 0]update_host_matrix_data: 514.66 [ms]
[OGL LOG][Proc: 0]init_precond: 0.035 [ms]
[OGL LOG][StoppingCriterion.H:587] Creating stopping criterion with minIter 1440 frequency 100
[OGL LOG][Proc: 0]generate_solver: 0.001 [ms]
[OGL LOG][Proc: 0]solve: 5886.07 [ms]
[OGL LOG][Proc: 0]copy_x_back: 27.955 [ms]
[OGL LOG][lduLduBase.H:294] 
Statistics:
	Time per iteration: 2451 [mu s]
	Time per residual norm calculation: 137.000000 [mu s]
	Time per iteration and DOF: 0.090778 [ns]
	Retrieve results bandwith 1.931000 [GByte/s]
nonecudaGKOCG:  Solving for p, Initial residual = 0.420812, Final residual = 1.69133e-05, No Iterations 2401
linear solve p 8753978
time step continuity errors : sum local = 6.35495e-11, global = 2.22064e-24, cumulative = 2.88254e-22
[OGL LOG][Proc: 0]global_index_init: 0.009 [ms]
[OGL LOG][Proc: 0]global_index_init: 0.002 [ms]
[OGL LOG][Proc: 0]update_host_matrix_data: 509.813 [ms]
[OGL LOG][Proc: 0]init_precond: 0.04 [ms]
[OGL LOG][StoppingCriterion.H:587] Creating stopping criterion with minIter 1440 frequency 100
[OGL LOG][Proc: 0]generate_solver: 0.002 [ms]
[OGL LOG][Proc: 0]solve: 5917.32 [ms]
[OGL LOG][Proc: 0]copy_x_back: 27.359 [ms]
[OGL LOG][lduLduBase.H:294] 
Statistics:
	Time per iteration: 2464 [mu s]
	Time per residual norm calculation: 143.000000 [mu s]
	Time per iteration and DOF: 0.091259 [ns]
	Retrieve results bandwith 1.973000 [GByte/s]
nonecudaGKOCG:  Solving for p, Initial residual = 0.365516, Final residual = 1.5112e-05, No Iterations 2401
linear solve p 8752614
time step continuity errors : sum local = 5.56952e-11, global = 2.22385e-23, cumulative = 3.10493e-22
ExecutionTime = 405.57 s  ClockTime = 408 s

Time = 0.000133333

Courant Number mean: 0.00251227 max: 0.0887236
DILUPBiCGStab:  Solving for Ux, Initial residual = 0.0466812, Final residual = 3.28394e-05, No Iterations 5
DILUPBiCGStab:  Solving for Uy, Initial residual = 0.0862058, Final residual = 1.70494e-05, No Iterations 5
DILUPBiCGStab:  Solving for Uz, Initial residual = 0.11343, Final residual = 7.0614e-05, No Iterations 5
linear solve U 9407468
[OGL LOG][Proc: 0]global_index_init: 0.01 [ms]
[OGL LOG][Proc: 0]global_index_init: 0.001 [ms]
[OGL LOG][Proc: 0]update_host_matrix_data: 507.791 [ms]
[OGL LOG][Proc: 0]init_precond: 0.032 [ms]
[OGL LOG][StoppingCriterion.H:587] Creating stopping criterion with minIter 1440 frequency 100
[OGL LOG][Proc: 0]generate_solver: 0.001 [ms]
[OGL LOG][Proc: 0]solve: 5687.61 [ms]
[OGL LOG][Proc: 0]copy_x_back: 27.426 [ms]
[OGL LOG][lduLduBase.H:294] 
Statistics:
	Time per iteration: 2471 [mu s]
	Time per residual norm calculation: 149.000000 [mu s]
	Time per iteration and DOF: 0.091519 [ns]
	Retrieve results bandwith 1.968000 [GByte/s]
nonecudaGKOCG:  Solving for p, Initial residual = 0.209406, Final residual = 9.18625e-05, No Iterations 2301
linear solve p 8531356
time step continuity errors : sum local = 3.1003e-10, global = -1.62429e-23, cumulative = 2.9425e-22
[OGL LOG][Proc: 0]global_index_init: 2.267 [ms]
[OGL LOG][Proc: 0]global_index_init: 0.001 [ms]
[OGL LOG][Proc: 0]update_host_matrix_data: 512.843 [ms]
[OGL LOG][Proc: 0]init_precond: 0.029 [ms]
[OGL LOG][StoppingCriterion.H:587] Creating stopping criterion with minIter 1380 frequency 100
[OGL LOG][Proc: 0]generate_solver: 0.001 [ms]
[OGL LOG][Proc: 0]solve: 5675.82 [ms]
[OGL LOG][Proc: 0]copy_x_back: 27.418 [ms]
[OGL LOG][lduLduBase.H:294] 
Statistics:
	Time per iteration: 2466 [mu s]
	Time per residual norm calculation: 141.000000 [mu s]
	Time per iteration and DOF: 0.091333 [ns]
	Retrieve results bandwith 1.969000 [GByte/s]
nonecudaGKOCG:  Solving for p, Initial residual = 0.170422, Final residual = 8.1084e-05, No Iterations 2301
linear solve p 8520642
time step continuity errors : sum local = 2.7596e-10, global = -9.82147e-23, cumulative = 1.96035e-22
ExecutionTime = 438.81 s  ClockTime = 441 s

Time = 0.000166667

Courant Number mean: 0.00290365 max: 0.0905868
DILUPBiCGStab:  Solving for Ux, Initial residual = 0.0352288, Final residual = 1.83429e-05, No Iterations 5
DILUPBiCGStab:  Solving for Uy, Initial residual = 0.0624476, Final residual = 1.10912e-05, No Iterations 5
DILUPBiCGStab:  Solving for Uz, Initial residual = 0.089446, Final residual = 3.8554e-05, No Iterations 5
linear solve U 9416113
[OGL LOG][Proc: 0]global_index_init: 0.025 [ms]
[OGL LOG][Proc: 0]global_index_init: 0.001 [ms]
[OGL LOG][Proc: 0]update_host_matrix_data: 513.209 [ms]
[OGL LOG][Proc: 0]init_precond: 0.042 [ms]
[OGL LOG][StoppingCriterion.H:587] Creating stopping criterion with minIter 1380 frequency 100
[OGL LOG][Proc: 0]generate_solver: 0.003 [ms]
[OGL LOG][Proc: 0]solve: 5738.86 [ms]
[OGL LOG][Proc: 0]copy_x_back: 27.747 [ms]
[OGL LOG][lduLduBase.H:294] 
Statistics:
	Time per iteration: 2494 [mu s]
	Time per residual norm calculation: 139.000000 [mu s]
	Time per iteration and DOF: 0.092370 [ns]
	Retrieve results bandwith 1.946000 [GByte/s]
nonecudaGKOCG:  Solving for p, Initial residual = 0.121283, Final residual = 3.92382e-05, No Iterations 2301
linear solve p 8596256
time step continuity errors : sum local = 1.23375e-10, global = -8.85654e-23, cumulative = 1.0747e-22
[OGL LOG][Proc: 0]global_index_init: 0.011 [ms]
[OGL LOG][Proc: 0]global_index_init: 0.001 [ms]
[OGL LOG][Proc: 0]update_host_matrix_data: 514.497 [ms]
[OGL LOG][Proc: 0]init_precond: 0.03 [ms]
[OGL LOG][StoppingCriterion.H:587] Creating stopping criterion with minIter 1380 frequency 100
[OGL LOG][Proc: 0]generate_solver: 0.001 [ms]
[OGL LOG][Proc: 0]solve: 5674.01 [ms]
[OGL LOG][Proc: 0]copy_x_back: 27.321 [ms]
[OGL LOG][lduLduBase.H:294] 
Statistics:
	Time per iteration: 2465 [mu s]
	Time per residual norm calculation: 148.000000 [mu s]
	Time per iteration and DOF: 0.091296 [ns]
	Retrieve results bandwith 1.976000 [GByte/s]
nonecudaGKOCG:  Solving for p, Initial residual = 0.100524, Final residual = 3.48057e-05, No Iterations 2301
linear solve p 8518860
time step continuity errors : sum local = 1.09292e-10, global = -1.54487e-22, cumulative = -4.70172e-23
ExecutionTime = 472.16 s  ClockTime = 475 s

Time = 0.0002

Courant Number mean: 0.00323665 max: 0.0917317
DILUPBiCGStab:  Solving for Ux, Initial residual = 0.0284963, Final residual = 1.21915e-05, No Iterations 5
DILUPBiCGStab:  Solving for Uy, Initial residual = 0.0490533, Final residual = 4.93562e-06, No Iterations 5
DILUPBiCGStab:  Solving for Uz, Initial residual = 0.0760733, Final residual = 2.5046e-05, No Iterations 5
linear solve U 11406317
[OGL LOG][Proc: 0]global_index_init: 0.009 [ms]
[OGL LOG][Proc: 0]global_index_init: 0.001 [ms]
[OGL LOG][Proc: 0]update_host_matrix_data: 515.391 [ms]
[OGL LOG][Proc: 0]init_precond: 0.033 [ms]
[OGL LOG][StoppingCriterion.H:587] Creating stopping criterion with minIter 1380 frequency 100
[OGL LOG][Proc: 0]generate_solver: 0.002 [ms]
[OGL LOG][Proc: 0]solve: 5693.24 [ms]
[OGL LOG][Proc: 0]copy_x_back: 27.535 [ms]
[OGL LOG][lduLduBase.H:294] 
Statistics:
	Time per iteration: 2474 [mu s]
	Time per residual norm calculation: 154.000000 [mu s]
	Time per iteration and DOF: 0.091630 [ns]
	Retrieve results bandwith 1.961000 [GByte/s]
nonecudaGKOCG:  Solving for p, Initial residual = 0.0714387, Final residual = 4.42822e-05, No Iterations 2301
linear solve p 8551139
time step continuity errors : sum local = 1.36529e-10, global = -9.14989e-23, cumulative = -1.38516e-22
[OGL LOG][Proc: 0]global_index_init: 0.01 [ms]
[OGL LOG][Proc: 0]global_index_init: 0.001 [ms]
[OGL LOG][Proc: 0]update_host_matrix_data: 513.025 [ms]
[OGL LOG][Proc: 0]init_precond: 0.036 [ms]
[OGL LOG][StoppingCriterion.H:587] Creating stopping criterion with minIter 1380 frequency 100
[OGL LOG][Proc: 0]generate_solver: 0.002 [ms]
[OGL LOG][Proc: 0]solve: 5731.08 [ms]
[OGL LOG][Proc: 0]copy_x_back: 27.239 [ms]
[OGL LOG][lduLduBase.H:294] 
Statistics:
	Time per iteration: 2490 [mu s]
	Time per residual norm calculation: 142.000000 [mu s]
	Time per iteration and DOF: 0.092222 [ns]
	Retrieve results bandwith 1.982000 [GByte/s]
nonecudaGKOCG:  Solving for p, Initial residual = 0.0598943, Final residual = 3.83163e-05, No Iterations 2301
linear solve p 8588938
time step continuity errors : sum local = 1.18514e-10, global = -1.50564e-23, cumulative = -1.53573e-22
ExecutionTime = 507.51 s  ClockTime = 510 s

Time = 0.000233333

Courant Number mean: 0.00352957 max: 0.0925279
DILUPBiCGStab:  Solving for Ux, Initial residual = 0.0240146, Final residual = 8.81731e-06, No Iterations 5
DILUPBiCGStab:  Solving for Uy, Initial residual = 0.0403766, Final residual = 4.84455e-06, No Iterations 5
DILUPBiCGStab:  Solving for Uz, Initial residual = 0.0656657, Final residual = 1.5434e-05, No Iterations 5
linear solve U 9411297
[OGL LOG][Proc: 0]global_index_init: 0.01 [ms]
[OGL LOG][Proc: 0]global_index_init: 0.001 [ms]
[OGL LOG][Proc: 0]update_host_matrix_data: 511.829 [ms]
[OGL LOG][Proc: 0]init_precond: 0.029 [ms]
[OGL LOG][StoppingCriterion.H:587] Creating stopping criterion with minIter 1380 frequency 100
[OGL LOG][Proc: 0]generate_solver: 0.001 [ms]
[OGL LOG][Proc: 0]solve: 3646.24 [ms]
[OGL LOG][Proc: 0]copy_x_back: 27.116 [ms]
[OGL LOG][lduLduBase.H:294] 
Statistics:
	Time per iteration: 2602 [mu s]
	Time per residual norm calculation: 204.000000 [mu s]
	Time per iteration and DOF: 0.096370 [ns]
	Retrieve results bandwith 1.991000 [GByte/s]
nonecudaGKOCG:  Solving for p, Initial residual = 0.0467034, Final residual = 8.32354e-05, No Iterations 1401
linear solve p 6488976
time step continuity errors : sum local = 2.64129e-10, global = 7.6285e-23, cumulative = -7.72876e-23
[OGL LOG][Proc: 0]global_index_init: 0.01 [ms]
[OGL LOG][Proc: 0]global_index_init: 0.001 [ms]
[OGL LOG][Proc: 0]update_host_matrix_data: 512.462 [ms]
[OGL LOG][Proc: 0]init_precond: 0.03 [ms]
[OGL LOG][StoppingCriterion.H:587] Creating stopping criterion with minIter 840 frequency 82
[OGL LOG][Proc: 0]generate_solver: 0.001 [ms]
================================================================================
hash: c2e4478d4827553ef40844564f5fe5ab
/*---------------------------------------------------------------------------*\
| =========                 |                                                 |
| \\      /  F ield         | OpenFOAM: The Open Source CFD Toolbox           |
|  \\    /   O peration     | Version:  2112                                  |
|   \\  /    A nd           | Website:  www.openfoam.com                      |
|    \\/     M anipulation  |                                                 |
\*---------------------------------------------------------------------------*/
Build  : d44c8318f0-20220111 OPENFOAM=2112 version=v2112
Arch   : "LSB;label=32;scalar=64"
Exec   : icoFoam -parallel
Date   : Sep 29 2022
Time   : 12:33:44
Host   : hkn0736.localdomain
PID    : 1946538
I/O    : uncollated
Case   : /hkfs/work/workspace/scratch/eq4036-lidDrivenCavity/single_node/mesh/200/matrix_solver/CG_NoPrecond_PETSC_CUDA/mpiRank_of/4/base
nProcs : 4
Hosts  :
(
    (hkn0736.localdomain 4)
)
Pstream initialized with:
    floatTransfer      : 0
    nProcsSimpleSum    : 0
    commsType          : nonBlocking
    polling iterations : 0
trapFpe: Floating point exception trapping enabled (FOAM_SIGFPE).
fileModificationChecking : Monitoring run-time modified files using timeStampMaster (fileModificationSkew 5, maxFileModificationPolls 20)
allowSystemOperations : Allowing user-supplied system call operations

// * * * * * * * * * * * * * * * * * * * * * * * * * * * * * * * * * * * * * //
Create time
CCreate mesh for time = 0

PISO: Operating solver in PISO mode

Reading transportProperties

Reading field p

Reading field U

Reading/calculating face flux field phi


Starting time loop

Time = 5e-05

Courant Number mean: 0 max: 0
DILUPBiCGStab:  Solving for Ux, Initial residual = 1, Final residual = 8.68229e-05, No Iterations 5
DILUPBiCGStab:  Solving for Uy:  solution singularity
DILUPBiCGStab:  Solving for Uz:  solution singularity
linear solve U 1315874
Initializing PETSc
PETSc-cg:  Solving for p, Initial residual = 1, Final residual = 9.94904e-05, No Iterations 1614
linear solve p 3658427
time step continuity errors : sum local = 6.57674e-10, global = 6.33156e-22, cumulative = 6.33156e-22
PETSc-cg:  Solving for p, Initial residual = 0.644867, Final residual = 9.99236e-05, No Iterations 1586
linear solve p 1066187
time step continuity errors : sum local = 9.54285e-10, global = 8.4428e-23, cumulative = 7.17584e-22
ExecutionTime = 13.9 s  ClockTime = 16 s

Time = 0.0001

Courant Number mean: 0.0015614 max: 0.0657801
DILUPBiCGStab:  Solving for Ux, Initial residual = 0.189842, Final residual = 4.73717e-05, No Iterations 5
DILUPBiCGStab:  Solving for Uy, Initial residual = 0.330041, Final residual = 2.54861e-05, No Iterations 5
DILUPBiCGStab:  Solving for Uz, Initial residual = 0.993217, Final residual = 0.000106143, No Iterations 5
linear solve U 2644176
PETSc-cg:  Solving for p, Initial residual = 0.509073, Final residual = 9.67665e-05, No Iterations 1561
linear solve p 1081598
time step continuity errors : sum local = 8.99622e-10, global = 1.77415e-22, cumulative = 8.94999e-22
PETSc-cg:  Solving for p, Initial residual = 0.419761, Final residual = 9.61434e-05, No Iterations 1556
linear solve p 1050331
time step continuity errors : sum local = 9.21455e-10, global = -7.94843e-23, cumulative = 8.15515e-22
ExecutionTime = 20.61 s  ClockTime = 22 s

Time = 0.00015

Courant Number mean: 0.00241164 max: 0.0810514
DILUPBiCGStab:  Solving for Ux, Initial residual = 0.0803497, Final residual = 1.52733e-05, No Iterations 5
DILUPBiCGStab:  Solving for Uy, Initial residual = 0.13729, Final residual = 5.32037e-06, No Iterations 5
DILUPBiCGStab:  Solving for Uz, Initial residual = 0.0907505, Final residual = 1.49825e-05, No Iterations 5
linear solve U 2645851
PETSc-cg:  Solving for p, Initial residual = 0.252576, Final residual = 9.79992e-05, No Iterations 1526
linear solve p 1064116
time step continuity errors : sum local = 7.04755e-10, global = 3.11072e-22, cumulative = 1.12659e-21
PETSc-cg:  Solving for p, Initial residual = 0.208953, Final residual = 9.96041e-05, No Iterations 1516
linear solve p 1026067
time step continuity errors : sum local = 7.08524e-10, global = 1.23759e-22, cumulative = 1.25035e-21
ExecutionTime = 27.29 s  ClockTime = 29 s

Time = 0.0002

Courant Number mean: 0.0029966 max: 0.0859676
DILUPBiCGStab:  Solving for Ux, Initial residual = 0.0511423, Final residual = 7.1213e-06, No Iterations 5
DILUPBiCGStab:  Solving for Uy, Initial residual = 0.0858832, Final residual = 3.10362e-06, No Iterations 5
DILUPBiCGStab:  Solving for Uz, Initial residual = 0.111236, Final residual = 9.05684e-06, No Iterations 5
linear solve U 2643083
PETSc-cg:  Solving for p, Initial residual = 0.122476, Final residual = 9.9257e-05, No Iterations 1485
linear solve p 1039243
time step continuity errors : sum local = 6.70875e-10, global = -2.10682e-22, cumulative = 1.03966e-21
PETSc-cg:  Solving for p, Initial residual = 0.0991889, Final residual = 9.95251e-05, No Iterations 1479
linear solve p 1005686
time step continuity errors : sum local = 6.80196e-10, global = -1.2699e-22, cumulative = 9.12674e-22
ExecutionTime = 33.91 s  ClockTime = 36 s

Time = 0.00025

Courant Number mean: 0.00346145 max: 0.088316
DILUPBiCGStab:  Solving for Ux, Initial residual = 0.0380463, Final residual = 4.12446e-06, No Iterations 5
DILUPBiCGStab:  Solving for Uy, Initial residual = 0.0619921, Final residual = 2.04592e-06, No Iterations 5
DILUPBiCGStab:  Solving for Uz, Initial residual = 0.091271, Final residual = 4.52964e-06, No Iterations 5
linear solve U 2652601
PETSc-cg:  Solving for p, Initial residual = 0.0622084, Final residual = 9.68314e-05, No Iterations 715
linear solve p 568892
time step continuity errors : sum local = 6.94665e-10, global = -1.32463e-22, cumulative = 7.80211e-22
PETSc-cg:  Solving for p, Initial residual = 0.0523299, Final residual = 9.79808e-05, No Iterations 682
linear solve p 521614
time step continuity errors : sum local = 6.66046e-10, global = 1.8715e-22, cumulative = 9.67361e-22
ExecutionTime = 39.6 s  ClockTime = 41 s

Time = 0.0003

Courant Number mean: 0.00385434 max: 0.0897419
DILUPBiCGStab:  Solving for Ux, Initial residual = 0.0304922, Final residual = 2.53159e-06, No Iterations 5
DILUPBiCGStab:  Solving for Uy, Initial residual = 0.0486047, Final residual = 1.25848e-06, No Iterations 5
DILUPBiCGStab:  Solving for Uz, Initial residual = 0.0775642, Final residual = 2.95745e-06, No Iterations 5
linear solve U 2645948
PETSc-cg:  Solving for p, Initial residual = 0.0394262, Final residual = 9.94813e-05, No Iterations 652
linear solve p 531976
time step continuity errors : sum local = 6.70672e-10, global = -1.07552e-22, cumulative = 8.59808e-22
PETSc-cg:  Solving for p, Initial residual = 0.0333535, Final residual = 9.90728e-05, No Iterations 642
linear solve p 499120
time step continuity errors : sum local = 6.63138e-10, global = 5.36504e-23, cumulative = 9.13459e-22
ExecutionTime = 45.22 s  ClockTime = 47 s

Time = 0.00035

Courant Number mean: 0.0041985 max: 0.0907274
DILUPBiCGStab:  Solving for Ux, Initial residual = 0.0255213, Final residual = 1.78739e-06, No Iterations 5
DILUPBiCGStab:  Solving for Uy, Initial residual = 0.0399308, Final residual = 9.05436e-07, No Iterations 5
DILUPBiCGStab:  Solving for Uz, Initial residual = 0.0664005, Final residual = 2.00477e-06, No Iterations 5
linear solve U 2640754
PETSc-cg:  Solving for p, Initial residual = 0.0289463, Final residual = 9.9379e-05, No Iterations 633
linear solve p 518083
time step continuity errors : sum local = 6.91449e-10, global = 3.14017e-22, cumulative = 1.22748e-21
PETSc-cg:  Solving for p, Initial residual = 0.0251102, Final residual = 9.94595e-05, No Iterations 622
linear solve p 485491
time step continuity errors : sum local = 6.73979e-10, global = -1.2651e-22, cumulative = 1.10097e-21
ExecutionTime = 50.81 s  ClockTime = 53 s

Time = 0.0004

Courant Number mean: 0.00450629 max: 0.0914619
DILUPBiCGStab:  Solving for Ux, Initial residual = 0.0219725, Final residual = 1.39489e-06, No Iterations 5
DILUPBiCGStab:  Solving for Uy, Initial residual = 0.0338791, Final residual = 6.59771e-07, No Iterations 5
DILUPBiCGStab:  Solving for Uz, Initial residual = 0.0580051, Final residual = 1.47629e-06, No Iterations 5
linear solve U 2640683
PETSc-cg:  Solving for p, Initial residual = 0.0215723, Final residual = 9.90585e-05, No Iterations 612
linear solve p 514261
time step continuity errors : sum local = 6.75747e-10, global = 5.95376e-24, cumulative = 1.10692e-21
PETSc-cg:  Solving for p, Initial residual = 0.0190533, Final residual = 9.93592e-05, No Iterations 606
linear solve p 476973
time step continuity errors : sum local = 6.72692e-10, global = -6.48639e-23, cumulative = 1.04206e-21
ExecutionTime = 56.38 s  ClockTime = 58 s

Time = 0.00045

Courant Number mean: 0.00478573 max: 0.0920367
DILUPBiCGStab:  Solving for Ux, Initial residual = 0.0193065, Final residual = 1.14741e-06, No Iterations 5
DILUPBiCGStab:  Solving for Uy, Initial residual = 0.0293952, Final residual = 5.29623e-07, No Iterations 5
DILUPBiCGStab:  Solving for Uz, Initial residual = 0.0516192, Final residual = 1.17484e-06, No Iterations 5
linear solve U 2644998
PETSc-cg:  Solving for p, Initial residual = 0.0180658, Final residual = 9.86831e-05, No Iterations 602
linear solve p 499277
time step continuity errors : sum local = 6.83926e-10, global = 2.7282e-22, cumulative = 1.31488e-21
PETSc-cg:  Solving for p, Initial residual = 0.0160822, Final residual = 9.90299e-05, No Iterations 595
linear solve p 470398
time step continuity errors : sum local = 6.75878e-10, global = -5.00703e-24, cumulative = 1.30987e-21
ExecutionTime = 61.94 s  ClockTime = 64 s

Time = 0.0005

Courant Number mean: 0.00504297 max: 0.0925025
DILUPBiCGStab:  Solving for Ux, Initial residual = 0.0172223, Final residual = 9.83946e-07, No Iterations 5
DILUPBiCGStab:  Solving for Uy, Initial residual = 0.0259497, Final residual = 4.45337e-07, No Iterations 5
DILUPBiCGStab:  Solving for Uz, Initial residual = 0.0463692, Final residual = 9.66177e-07, No Iterations 5
linear solve U 2647409
PETSc-cg:  Solving for p, Initial residual = 0.0151857, Final residual = 9.8397e-05, No Iterations 593
linear solve p 493774
time step continuity errors : sum local = 6.77076e-10, global = 1.09751e-22, cumulative = 1.41962e-21
PETSc-cg:  Solving for p, Initial residual = 0.0136088, Final residual = 9.63729e-05, No Iterations 588
linear solve p 466526
time step continuity errors : sum local = 6.59183e-10, global = -5.0626e-23, cumulative = 1.36899e-21
ExecutionTime = 67.5 s  ClockTime = 69 s

Time = 0.00055

Courant Number mean: 0.00528119 max: 0.0928899
DILUPBiCGStab:  Solving for Ux, Initial residual = 0.0155457, Final residual = 8.70752e-07, No Iterations 5
DILUPBiCGStab:  Solving for Uy, Initial residual = 0.0232132, Final residual = 3.94857e-07, No Iterations 5
DILUPBiCGStab:  Solving for Uz, Initial residual = 0.0421217, Final residual = 8.23369e-07, No Iterations 5
linear solve U 2648818
PETSc-cg:  Solving for p, Initial residual = 0.0132311, Final residual = 9.78785e-05, No Iterations 586
linear solve p 499095
time step continuity errors : sum local = 6.79282e-10, global = 1.97138e-22, cumulative = 1.56613e-21
PETSc-cg:  Solving for p, Initial residual = 0.0118931, Final residual = 9.88195e-05, No Iterations 580
linear solve p 461406
time step continuity errors : sum local = 6.78773e-10, global = 2.21351e-22, cumulative = 1.78748e-21
ExecutionTime = 73.05 s  ClockTime = 75 s

Time = 0.0006

Courant Number mean: 0.00550393 max: 0.0932187
DILUPBiCGStab:  Solving for Ux, Initial residual = 0.0141655, Final residual = 8.04726e-07, No Iterations 5
DILUPBiCGStab:  Solving for Uy, Initial residual = 0.0209908, Final residual = 3.53598e-07, No Iterations 5
DILUPBiCGStab:  Solving for Uz, Initial residual = 0.0385298, Final residual = 7.11036e-07, No Iterations 5
linear solve U 2646350
[...]
linear solve p 9252334
time step continuity errors : sum local = 2.04437e-10, global = 1.27095e-22, cumulative = -6.74182e-22
[OGL LOG][Proc: 0]global_index_init: 0.01 [ms]
[OGL LOG][Proc: 0]global_index_init: 0.001 [ms]
[OGL LOG][Proc: 0]update_host_matrix_data: 805.586 [ms]
[OGL LOG][Proc: 0]init_precond: 0.027 [ms]
[OGL LOG][StoppingCriterion.H:587] Creating stopping criterion with minIter 660 frequency 100
[OGL LOG][Proc: 0]generate_solver: 0.001 [ms]
[OGL LOG][Proc: 0]solve: 4461.3 [ms]
[OGL LOG][Proc: 0]copy_x_back: 43.505 [ms]
[OGL LOG][lduLduBase.H:294] 
Statistics:
	Time per iteration: 4052 [mu s]
	Time per residual norm calculation: 163.000000 [mu s]
	Time per iteration and DOF: 0.094507 [ns]
	Retrieve results bandwith 1.971000 [GByte/s]
nonecudaGKOCG:  Solving for p, Initial residual = 0.0115171, Final residual = 7.87324e-05, No Iterations 1101
linear solve p 9214969
time step continuity errors : sum local = 1.7896e-10, global = -1.57788e-22, cumulative = -8.3197e-22
ExecutionTime = 1403.05 s  ClockTime = 1407 s

Time = 0.000428571

Courant Number mean: 0.00484568 max: 0.095549
DILUPBiCGStab:  Solving for Ux, Initial residual = 0.0106876, Final residual = 3.36307e-06, No Iterations 5
DILUPBiCGStab:  Solving for Uy, Initial residual = 0.0166841, Final residual = 1.51992e-06, No Iterations 5
DILUPBiCGStab:  Solving for Uz, Initial residual = 0.0315006, Final residual = 5.15873e-06, No Iterations 5
linear solve U 20128931
[OGL LOG][Proc: 0]global_index_init: 0.01 [ms]
[OGL LOG][Proc: 0]global_index_init: 0.001 [ms]
[OGL LOG][Proc: 0]update_host_matrix_data: 808.796 [ms]
[OGL LOG][Proc: 0]init_precond: 0.034 [ms]
[OGL LOG][StoppingCriterion.H:587] Creating stopping criterion with minIter 660 frequency 100
[OGL LOG][Proc: 0]generate_solver: 0.001 [ms]
[OGL LOG][Proc: 0]solve: 4831.21 [ms]
[OGL LOG][Proc: 0]copy_x_back: 43.183 [ms]
[OGL LOG][lduLduBase.H:294] 
Statistics:
	Time per iteration: 4022 [mu s]
	Time per residual norm calculation: 166.000000 [mu s]
	Time per iteration and DOF: 0.093808 [ns]
	Retrieve results bandwith 1.985000 [GByte/s]
nonecudaGKOCG:  Solving for p, Initial residual = 0.0112854, Final residual = 5.45217e-05, No Iterations 1201
linear solve p 9587220
time step continuity errors : sum local = 1.30956e-10, global = -6.37572e-23, cumulative = -8.95728e-22
[OGL LOG][Proc: 0]global_index_init: 0.056 [ms]
[OGL LOG][Proc: 0]global_index_init: 0.001 [ms]
[OGL LOG][Proc: 0]update_host_matrix_data: 806.027 [ms]
[OGL LOG][Proc: 0]init_precond: 0.029 [ms]
[OGL LOG][StoppingCriterion.H:587] Creating stopping criterion with minIter 720 frequency 100
[OGL LOG][Proc: 0]generate_solver: 0.002 [ms]
[OGL LOG][Proc: 0]solve: 4471.78 [ms]
[OGL LOG][Proc: 0]copy_x_back: 43.035 [ms]
[OGL LOG][lduLduBase.H:294] 
Statistics:
	Time per iteration: 4061 [mu s]
	Time per residual norm calculation: 162.000000 [mu s]
	Time per iteration and DOF: 0.094717 [ns]
	Retrieve results bandwith 1.992000 [GByte/s]
nonecudaGKOCG:  Solving for p, Initial residual = 0.0105965, Final residual = 9.29613e-05, No Iterations 1101
linear solve p 9218196
time step continuity errors : sum local = 2.13879e-10, global = -9.93858e-23, cumulative = -9.95113e-22
ExecutionTime = 1452.79 s  ClockTime = 1457 s

Time = 0.000457143

Courant Number mean: 0.00499294 max: 0.0956967
DILUPBiCGStab:  Solving for Ux, Initial residual = 0.0100157, Final residual = 2.91767e-06, No Iterations 5
DILUPBiCGStab:  Solving for Uy, Initial residual = 0.015529, Final residual = 1.34597e-06, No Iterations 5
DILUPBiCGStab:  Solving for Uz, Initial residual = 0.0294763, Final residual = 4.89683e-06, No Iterations 5
linear solve U 20129555
[OGL LOG][Proc: 0]global_index_init: 0.011 [ms]
[OGL LOG][Proc: 0]global_index_init: 0.001 [ms]
[OGL LOG][Proc: 0]update_host_matrix_data: 809.466 [ms]
[OGL LOG][Proc: 0]init_precond: 0.033 [ms]
[OGL LOG][StoppingCriterion.H:587] Creating stopping criterion with minIter 660 frequency 100
[OGL LOG][Proc: 0]generate_solver: 0.002 [ms]
[OGL LOG][Proc: 0]solve: 4477.48 [ms]
[OGL LOG][Proc: 0]copy_x_back: 43.867 [ms]
[OGL LOG][lduLduBase.H:294] 
Statistics:
	Time per iteration: 4066 [mu s]
	Time per residual norm calculation: 172.000000 [mu s]
	Time per iteration and DOF: 0.094834 [ns]
	Retrieve results bandwith 1.954000 [GByte/s]
nonecudaGKOCG:  Solving for p, Initial residual = 0.0100641, Final residual = 8.67444e-05, No Iterations 1101
linear solve p 9245278
time step continuity errors : sum local = 1.97703e-10, global = -1.67718e-22, cumulative = -1.16283e-21
[OGL LOG][Proc: 0]global_index_init: 0.01 [ms]
[OGL LOG][Proc: 0]global_index_init: 0.001 [ms]
[OGL LOG][Proc: 0]update_host_matrix_data: 804.335 [ms]
[OGL LOG][Proc: 0]init_precond: 0.032 [ms]
[OGL LOG][StoppingCriterion.H:587] Creating stopping criterion with minIter 660 frequency 100
[OGL LOG][Proc: 0]generate_solver: 0.002 [ms]
[OGL LOG][Proc: 0]solve: 4527.39 [ms]
[OGL LOG][Proc: 0]copy_x_back: 43.524 [ms]
[OGL LOG][lduLduBase.H:294] 
Statistics:
	Time per iteration: 4112 [mu s]
	Time per residual norm calculation: 164.000000 [mu s]
	Time per iteration and DOF: 0.095907 [ns]
	Retrieve results bandwith 1.970000 [GByte/s]
nonecudaGKOCG:  Solving for p, Initial residual = 0.00949727, Final residual = 7.36089e-05, No Iterations 1101
linear solve p 9264079
time step continuity errors : sum local = 1.67558e-10, global = -1.37987e-22, cumulative = -1.30082e-21
ExecutionTime = 1502.23 s  ClockTime = 1507 s

Time = 0.000485714

Courant Number mean: 0.00513388 max: 0.0958296
DILUPBiCGStab:  Solving for Ux, Initial residual = 0.00942595, Final residual = 2.55425e-06, No Iterations 5
DILUPBiCGStab:  Solving for Uy, Initial residual = 0.0145144, Final residual = 1.21886e-06, No Iterations 5
DILUPBiCGStab:  Solving for Uz, Initial residual = 0.0277829, Final residual = 4.22346e-06, No Iterations 5
linear solve U 23520617
[OGL LOG][Proc: 0]global_index_init: 0.01 [ms]
[OGL LOG][Proc: 0]global_index_init: 0.001 [ms]
[OGL LOG][Proc: 0]update_host_matrix_data: 809.164 [ms]
[OGL LOG][Proc: 0]init_precond: 0.034 [ms]
[OGL LOG][StoppingCriterion.H:587] Creating stopping criterion with minIter 660 frequency 100
[OGL LOG][Proc: 0]generate_solver: 0.001 [ms]
[OGL LOG][Proc: 0]solve: 4828.34 [ms]
[OGL LOG][Proc: 0]copy_x_back: 43.805 [ms]
[OGL LOG][lduLduBase.H:294] 
Statistics:
	Time per iteration: 4020 [mu s]
	Time per residual norm calculation: 168.000000 [mu s]
	Time per iteration and DOF: 0.093761 [ns]
	Retrieve results bandwith 1.957000 [GByte/s]
nonecudaGKOCG:  Solving for p, Initial residual = 0.00944241, Final residual = 4.84761e-05, No Iterations 1201
linear solve p 9600157
time step continuity errors : sum local = 1.18019e-10, global = -1.21261e-22, cumulative = -1.42208e-21
[OGL LOG][Proc: 0]global_index_init: 0.011 [ms]
[OGL LOG][Proc: 0]global_index_init: 0.001 [ms]
[OGL LOG][Proc: 0]update_host_matrix_data: 805.64 [ms]
[OGL LOG][Proc: 0]init_precond: 0.027 [ms]
[OGL LOG][StoppingCriterion.H:587] Creating stopping criterion with minIter 720 frequency 100
[OGL LOG][Proc: 0]generate_solver: 0.002 [ms]
[OGL LOG][Proc: 0]solve: 4482.71 [ms]
[OGL LOG][Proc: 0]copy_x_back: 43.258 [ms]
[OGL LOG][lduLduBase.H:294] 
Statistics:
	Time per iteration: 4071 [mu s]
	Time per residual norm calculation: 162.000000 [mu s]
	Time per iteration and DOF: 0.094950 [ns]
	Retrieve results bandwith 1.982000 [GByte/s]
nonecudaGKOCG:  Solving for p, Initial residual = 0.00889558, Final residual = 8.62105e-05, No Iterations 1101
linear solve p 9236179
time step continuity errors : sum local = 1.99151e-10, global = -2.58704e-22, cumulative = -1.68078e-21
ExecutionTime = 1555.37 s  ClockTime = 1560 s

Time = 0.000514286

Courant Number mean: 0.00526899 max: 0.0959499
DILUPBiCGStab:  Solving for Ux, Initial residual = 0.00889935, Final residual = 2.25522e-06, No Iterations 5
DILUPBiCGStab:  Solving for Uy, Initial residual = 0.0136282, Final residual = 1.10032e-06, No Iterations 5
DILUPBiCGStab:  Solving for Uz, Initial residual = 0.0261637, Final residual = 4.20653e-06, No Iterations 5
linear solve U 23614441
[OGL LOG][Proc: 0]global_index_init: 0.011 [ms]
[OGL LOG][Proc: 0]global_index_init: 0.001 [ms]
[OGL LOG][Proc: 0]update_host_matrix_data: 809.136 [ms]
[OGL LOG][Proc: 0]init_precond: 0.039 [ms]
[OGL LOG][StoppingCriterion.H:587] Creating stopping criterion with minIter 660 frequency 100
[OGL LOG][Proc: 0]generate_solver: 0.002 [ms]
[OGL LOG][Proc: 0]solve: 4528.45 [ms]
[OGL LOG][Proc: 0]copy_x_back: 43.473 [ms]
[OGL LOG][lduLduBase.H:294] 
Statistics:
	Time per iteration: 4113 [mu s]
	Time per residual norm calculation: 165.000000 [mu s]
	Time per iteration and DOF: 0.095930 [ns]
	Retrieve results bandwith 1.972000 [GByte/s]
nonecudaGKOCG:  Solving for p, Initial residual = 0.00848489, Final residual = 7.66493e-05, No Iterations 1101
linear solve p 9272178
time step continuity errors : sum local = 1.75614e-10, global = 1.59766e-23, cumulative = -1.66481e-21
[OGL LOG][Proc: 0]global_index_init: 0.011 [ms]
[OGL LOG][Proc: 0]global_index_init: 0.001 [ms]
[OGL LOG][Proc: 0]update_host_matrix_data: 805.808 [ms]
================================================================================
hash: a1978d3babffbdd94304eb6086cec308
/*---------------------------------------------------------------------------*\
| =========                 |                                                 |
| \\      /  F ield         | OpenFOAM: The Open Source CFD Toolbox           |
|  \\    /   O peration     | Version:  2112                                  |
|   \\  /    A nd           | Website:  www.openfoam.com                      |
|    \\/     M anipulation  |                                                 |
\*---------------------------------------------------------------------------*/
Build  : d44c8318f0-20220111 OPENFOAM=2112 version=v2112
Arch   : "LSB;label=32;scalar=64"
Exec   : icoFoam -parallel
Date   : Sep 29 2022
Time   : 12:33:43
Host   : hkn0617.localdomain
PID    : 2612630
I/O    : uncollated
Case   : /hkfs/work/workspace/scratch/eq4036-lidDrivenCavity/single_node/mesh/250/matrix_solver/CG_NoPrecond_PETSC_CUDA/mpiRank_of/4/base
nProcs : 4
Hosts  :
(
    (hkn0617.localdomain 4)
)
Pstream initialized with:
    floatTransfer      : 0
    nProcsSimpleSum    : 0
    commsType          : nonBlocking
    polling iterations : 0
trapFpe: Floating point exception trapping enabled (FOAM_SIGFPE).
fileModificationChecking : Monitoring run-time modified files using timeStampMaster (fileModificationSkew 5, maxFileModificationPolls 20)
allowSystemOperations : Allowing user-supplied system call operations

// * * * * * * * * * * * * * * * * * * * * * * * * * * * * * * * * * * * * * //
Create time

Create mesh for time = 0


PISO: Operating solver in PISO mode

Reading transportProperties

Reading field p

Reading field U

Reading/calculating face flux field phi


Starting time loop

Time = 4e-05

Courant Number mean: 0 max: 0
DILUPBiCGStab:  Solving for Ux, Initial residual = 1, Final residual = 0.000228346, No Iterations 5
DILUPBiCGStab:  Solving for Uy:  solution singularity
DILUPBiCGStab:  Solving for Uz:  solution singularity
linear solve U 2656648
Initializing PETSc
PETSc-cg:  Solving for p, Initial residual = 1, Final residual = 9.98773e-05, No Iterations 2024
linear solve p 208326600
time step continuity errors : sum local = 4.78356e-10, global = 5.84377e-24, cumulative = 5.84377e-24
PETSc-cg:  Solving for p, Initial residual = 0.669534, Final residual = 9.80537e-05, No Iterations 1990
linear solve p 202189549
time step continuity errors : sum local = 6.63082e-10, global = -4.35743e-24, cumulative = 1.48634e-24
ExecutionTime = 428.89 s  ClockTime = 431 s

Time = 8e-05

Courant Number mean: 0.00142695 max: 0.0690564
DILUPBiCGStab:  Solving for Ux, Initial residual = 0.180319, Final residual = 0.000127263, No Iterations 5
DILUPBiCGStab:  Solving for Uy, Initial residual = 0.336077, Final residual = 7.21794e-05, No Iterations 5
DILUPBiCGStab:  Solving for Uz, Initial residual = 0.994936, Final residual = 0.000335406, No Iterations 5
linear solve U 5319193
PETSc-cg:  Solving for p, Initial residual = 0.554664, Final residual = 9.78865e-05, No Iterations 1960
linear solve p 199188230
time step continuity errors : sum local = 6.56193e-10, global = -2.70368e-22, cumulative = -2.68881e-22
PETSc-cg:  Solving for p, Initial residual = 0.471058, Final residual = 9.98132e-05, No Iterations 1953
linear solve p 198588574
time step continuity errors : sum local = 6.86843e-10, global = -6.92366e-23, cumulative = -3.38118e-22
ExecutionTime = 834.96 s  ClockTime = 838 s

Time = 0.00012

Courant Number mean: 0.00219283 max: 0.083241
DILUPBiCGStab:  Solving for Ux, Initial residual = 0.0755082, Final residual = 3.87806e-05, No Iterations 5
DILUPBiCGStab:  Solving for Uy, Initial residual = 0.136992, Final residual = 1.67575e-05, No Iterations 5
DILUPBiCGStab:  Solving for Uz, Initial residual = 0.0989176, Final residual = 4.61853e-05, No Iterations 5
linear solve U 5360310
PETSc-cg:  Solving for p, Initial residual = 0.341576, Final residual = 9.83511e-05, No Iterations 1910
linear solve p 194216099
time step continuity errors : sum local = 4.87806e-10, global = 3.12553e-23, cumulative = -3.06863e-22
PETSc-cg:  Solving for p, Initial residual = 0.290048, Final residual = 9.9906e-05, No Iterations 1898
linear solve p 193007485
time step continuity errors : sum local = 4.8748e-10, global = -6.78093e-23, cumulative = -3.74672e-22
ExecutionTime = 1230.55 s  ClockTime = 1234 s

Time = 0.00016

Courant Number mean: 0.00272165 max: 0.0875664
DILUPBiCGStab:  Solving for Ux, Initial residual = 0.0486497, Final residual = 1.77343e-05, No Iterations 5
DILUPBiCGStab:  Solving for Uy, Initial residual = 0.0859723, Final residual = 7.81113e-06, No Iterations 5
DILUPBiCGStab:  Solving for Uz, Initial residual = 0.11037, Final residual = 3.04503e-05, No Iterations 5
linear solve U 5330944
PETSc-cg:  Solving for p, Initial residual = 0.161908, Final residual = 9.96658e-05, No Iterations 1872
linear solve p 190209457
time step continuity errors : sum local = 4.57585e-10, global = -1.94586e-22, cumulative = -5.69258e-22
================================================================================
hash: a19efb0fb02ae61306a9ea06cd9934d3
/*---------------------------------------------------------------------------*\
| =========                 |                                                 |
| \\      /  F ield         | OpenFOAM: The Open Source CFD Toolbox           |
|  \\    /   O peration     | Version:  2112                                  |
|   \\  /    A nd           | Website:  www.openfoam.com                      |
|    \\/     M anipulation  |                                                 |
\*---------------------------------------------------------------------------*/
Build  : d44c8318f0-20220111 OPENFOAM=2112 version=v2112
Arch   : "LSB;label=32;scalar=64"
Exec   : icoFoam -parallel
Date   : Sep 29 2022
Time   : 12:33:44
Host   : hkn0721.localdomain
PID    : 3172868
I/O    : uncollated
Case   : /hkfs/work/workspace/scratch/eq4036-lidDrivenCavity/single_node/mesh/250/matrix_solver/CG_NoPrecond_Ginkgo_CUDA/mpiRank_gko/4/base
nProcs : 4
Hosts  :
(
    (hkn0721.localdomain 4)
)
Pstream initialized with:
    floatTransfer      : 0
    nProcsSimpleSum    : 0
    commsType          : nonBlocking
    polling iterations : 0
trapFpe: Floating point exception trapping enabled (FOAM_SIGFPE).
fileModificationChecking : Monitoring run-time modified files using timeStampMaster (fileModificationSkew 5, maxFileModificationPolls 20)
allowSystemOperations : Allowing user-supplied system call operations

// * * * * * * * * * * * * * * * * * * * * * * * * * * * * * * * * * * * * * //
Create time

Create mesh for time = 0


PISO: Operating solver in PISO mode

Reading transportProperties

Reading field p

Reading field U

Reading/calculating face flux field phi


Starting time loop

Time = 4e-05

Courant Number mean: 0 max: 0
DILUPBiCGStab:  Solving for Ux, Initial residual = 1, Final residual = 0.000228346, No Iterations 5
DILUPBiCGStab:  Solving for Uy:  solution singularity
DILUPBiCGStab:  Solving for Uz:  solution singularity
linear solve U 2622280
[OGL LOG][lduLduBase.H:107] Initialising OGL
	Version:  cac8f54
	Branch: repartition 
	Ginkgo version: 1.5.0(develop)
	MPI is GPU aware: 1
	Forces host buffer based communication: 1
	CPU ranks per GPU: 1
	Matrix format: Coo
[OGL LOG][Proc: 0]global_index_init: 0.023 [ms]
[OGL LOG][Proc: 0]global_index_init: 0.002 [ms]
[OGL LOG][Proc: 0]init_host_sparsity_pattern: 114591 [ms]
[OGL LOG][Proc: 0]update_host_matrix_data: 348.512 [ms]
[OGL LOG][Proc: 0]init_precond: 0.126 [ms]
[OGL LOG][StoppingCriterion.H:587] Creating stopping criterion with minIter 0 frequency 1
[OGL LOG][Proc: 0]generate_solver: 0.035 [ms]
[OGL LOG][Proc: 0]solve: 3359.27 [ms]
[OGL LOG][Proc: 0]copy_x_back: 16.117 [ms]
[OGL LOG][lduLduBase.H:294] 
Statistics:
	Time per iteration: 1658 [mu s]
	Time per residual norm calculation: 168.000000 [mu s]
	Time per iteration and DOF: 0.106112 [ns]
	Retrieve results bandwith 1.938000 [GByte/s]
nonecudaGKOCG:  Solving for p, Initial residual = 1, Final residual = 9.9832e-05, No Iterations 2025
linear solve p 121530538
time step continuity errors : sum local = 4.78139e-10, global = -4.57374e-23, cumulative = -4.57374e-23
[OGL LOG][Proc: 0]global_index_init: 0.01 [ms]
[OGL LOG][Proc: 0]global_index_init: 0.001 [ms]
[OGL LOG][Proc: 0]update_host_matrix_data: 291.516 [ms]
[OGL LOG][Proc: 0]init_precond: 0.03 [ms]
[OGL LOG][StoppingCriterion.H:587] Creating stopping criterion with minIter 1215 frequency 85
[OGL LOG][Proc: 0]generate_solver: 0.002 [ms]
[OGL LOG][Proc: 0]solve: 3154.21 [ms]
[OGL LOG][Proc: 0]copy_x_back: 11.627 [ms]
[OGL LOG][lduLduBase.H:294] 
Statistics:
	Time per iteration: 1545 [mu s]
	Time per residual norm calculation: 121.000000 [mu s]
	Time per iteration and DOF: 0.098880 [ns]
	Retrieve results bandwith 2.687000 [GByte/s]
nonecudaGKOCG:  Solving for p, Initial residual = 0.669534, Final residual = 4.63418e-05, No Iterations 2041
linear solve p 4722913
time step continuity errors : sum local = 3.1339e-10, global = 7.99682e-23, cumulative = 3.42308e-23
ExecutionTime = 144.64 s  ClockTime = 145 s

Time = 8e-05

Courant Number mean: 0.00142695 max: 0.0690564
DILUPBiCGStab:  Solving for Ux, Initial residual = 0.180319, Final residual = 0.000127263, No Iterations 5
DILUPBiCGStab:  Solving for Uy, Initial residual = 0.336076, Final residual = 7.21797e-05, No Iterations 5
DILUPBiCGStab:  Solving for Uz, Initial residual = 0.994986, Final residual = 0.000334986, No Iterations 5
linear solve U 5322108
[OGL LOG][Proc: 0]global_index_init: 0.01 [ms]
[OGL LOG][Proc: 0]global_index_init: 0.001 [ms]
[OGL LOG][Proc: 0]update_host_matrix_data: 294.806 [ms]
[OGL LOG][Proc: 0]init_precond: 0.03 [ms]
[OGL LOG][StoppingCriterion.H:587] Creating stopping criterion with minIter 1224 frequency 98
[OGL LOG][Proc: 0]generate_solver: 0.001 [ms]
[OGL LOG][Proc: 0]solve: 3039.28 [ms]
[OGL LOG][Proc: 0]copy_x_back: 16.011 [ms]
[OGL LOG][lduLduBase.H:294] 
Statistics:
	Time per iteration: 1549 [mu s]
	Time per residual norm calculation: 119.000000 [mu s]
	Time per iteration and DOF: 0.099136 [ns]
	Retrieve results bandwith 1.951000 [GByte/s]
nonecudaGKOCG:  Solving for p, Initial residual = 0.554647, Final residual = 9.59375e-05, No Iterations 1961
linear solve p 4618606
time step continuity errors : sum local = 6.43078e-10, global = -8.34789e-23, cumulative = -4.92481e-23
[OGL LOG][Proc: 0]global_index_init: 0.012 [ms]
[OGL LOG][Proc: 0]global_index_init: 0.001 [ms]
[OGL LOG][Proc: 0]update_host_matrix_data: 291.888 [ms]
[OGL LOG][Proc: 0]init_precond: 0.028 [ms]
[OGL LOG][StoppingCriterion.H:587] Creating stopping criterion with minIter 1176 frequency 100
[OGL LOG][Proc: 0]generate_solver: 0.001 [ms]
================================================================================
