hash: 61b12a42e960e867e690b336f9b3779f
/*---------------------------------------------------------------------------*\
| =========                 |                                                 |
| \\      /  F ield         | OpenFOAM: The Open Source CFD Toolbox           |
|  \\    /   O peration     | Version:  v2106                                 |
|   \\  /    A nd           | Website:  www.openfoam.com                      |
|    \\/     M anipulation  |                                                 |
\*---------------------------------------------------------------------------*/
Build  : f815a12bba-20210902 OPENFOAM=2106
Arch   : "LSB;label=32;scalar=64"
Exec   : icoFoam -parallel
Date   : Sep 27 2022
Time   : 06:40:35
Host   : nla-gpu2.ianm.kit.edu
PID    : 1007607
I/O    : uncollated
Case   : /home/greole/data/code/ogl_labbook/lidDrivenCavity/matrix_formats/mesh/100/matrix_solver/CG_NoPrecond_Ginkgo_HIP/mpiRank_gko/8/matrixFormat/Ell/base
nProcs : 8
Hosts  :
(
    (nla-gpu2.ianm.kit.edu 8)
)
Pstream initialized with:
    floatTransfer      : 0
    nProcsSimpleSum    : 0
    commsType          : nonBlocking
    polling iterations : 0
trapFpe: Floating point exception trapping enabled (FOAM_SIGFPE).
fileModificationChecking : Monitoring run-time modified files using timeStampMaster (fileModificationSkew 5, maxFileModificationPolls 20)
allowSystemOperations : Allowing user-supplied system call operations

// * * * * * * * * * * * * * * * * * * * * * * * * * * * * * * * * * * * * * //
Create time

Create mesh for time = 0


PISO: Operating solver in PISO mode

Reading transportProperties

Reading field p

Reading field U

Reading/calculating face flux field phi


Starting time loop

Time = 0.0001

Courant Number mean: 0 max: 0
DILUPBiCGStab:  Solving for Ux, Initial residual = 1, Final residual = 3.41774e-06, No Iterations 5
DILUPBiCGStab:  Solving for Uy:  solution singularity
DILUPBiCGStab:  Solving for Uz:  solution singularity
linear solve U 79.811 [ms]
piso setup 23.203 [ms]
 correctNonOrthogonal 
 setRef 
 startSolve 
[OGL LOG][lduLduBase.H:107] Initialising OGL
	Version:  cac8f54+
	Branch: repartition 
	Ginkgo version: 1.5.0(develop)
	MPI is GPU aware: 1
	Forces host buffer based communication: 1
	CPU ranks per GPU: 1
	Matrix format: Ell
[OGL LOG][Proc: 0]global_index_init: 1.403 [ms]
[OGL LOG][Proc: 0]global_index_init: 0.002 [ms]
[OGL LOG][Proc: 0]init_host_sparsity_pattern: 494.06 [ms]
[OGL LOG][Proc: 0]update_host_matrix_data: 10.466 [ms]
[OGL LOG][Proc: 0]init_precond: 0.263 [ms]
frequency 101[OGL LOG][StoppingCriterion.H:589] Creating stopping criterion with minIter 0 frequency 10
[OGL LOG][Proc: 0]generate_solver: 0.023 [ms]
[OGL LOG][Proc: 0]solve: 349.845 [ms]
[OGL LOG][Proc: 0]copy_x_back: 0.351 [ms]
[OGL LOG][lduLduBase.H:294] 
Statistics:
	Time per iteration: 436 [mu s]
	Time per residual norm calculation: 1112.000000 [mu s]
	Time per iteration and DOF: 0.436000 [ns]
	Retrieve results bandwith 2.849000 [GByte/s]
nonehipGKOCG:  Solving for p, Initial residual = 1, Final residual = 7.32921e-05, No Iterations 801
linear solve p 1734.65 [ms]
piso step 1743.61 [ms]
 contErrors 
time step continuity errors : sum local = 1.29487e-09, global = -3.6943e-22, cumulative = -3.6943e-22
piso setup 21.52 [ms]
 correctNonOrthogonal 
 setRef 
 startSolve 
[OGL LOG][Proc: 0]global_index_init: 0.037 [ms]
[OGL LOG][Proc: 0]global_index_init: 0.002 [ms]
[OGL LOG][Proc: 0]update_host_matrix_data: 5.114 [ms]
[OGL LOG][Proc: 0]init_precond: 0.055 [ms]
frequency 101[OGL LOG][StoppingCriterion.H:589] Creating stopping criterion with minIter 480 frequency 10
[OGL LOG][Proc: 0]generate_solver: 0.004 [ms]
[OGL LOG][Proc: 0]solve: 348.024 [ms]
[OGL LOG][Proc: 0]copy_x_back: 0.454 [ms]
[OGL LOG][lduLduBase.H:294] 
Statistics:
	Time per iteration: 445 [mu s]
	Time per residual norm calculation: 135.000000 [mu s]
	Time per iteration and DOF: 0.445000 [ns]
	Retrieve results bandwith 2.202000 [GByte/s]
nonehipGKOCG:  Solving for p, Initial residual = 0.559991, Final residual = 7.78011e-05, No Iterations 781
linear solve p 394.862 [ms]
piso step 405.24 [ms]
 contErrors 
time step continuity errors : sum local = 2.12809e-09, global = -6.09872e-22, cumulative = -9.79301e-22
ExecutionTime = 3.08 s  ClockTime = 3 s

Time = 0.0002

Courant Number mean: 0.00201333 max: 0.0540371
DILUPBiCGStab:  Solving for Ux, Initial residual = 0.216464, Final residual = 2.36891e-06, No Iterations 5
DILUPBiCGStab:  Solving for Uy, Initial residual = 0.309937, Final residual = 1.75831e-06, No Iterations 5
DILUPBiCGStab:  Solving for Uz, Initial residual = 0.981351, Final residual = 5.76078e-06, No Iterations 5
linear solve U 102.217 [ms]
piso setup 15.589 [ms]
 correctNonOrthogonal 
 setRef 
 startSolve 
[OGL LOG][Proc: 0]global_index_init: 0.036 [ms]
[OGL LOG][Proc: 0]global_index_init: 0.006 [ms]
[OGL LOG][Proc: 0]update_host_matrix_data: 6.58 [ms]
[OGL LOG][Proc: 0]init_precond: 0.051 [ms]
frequency 101[OGL LOG][StoppingCriterion.H:589] Creating stopping criterion with minIter 468 frequency 10
[OGL LOG][Proc: 0]generate_solver: 0.004 [ms]
[OGL LOG][Proc: 0]solve: 304.644 [ms]
[OGL LOG][Proc: 0]copy_x_back: 0.343 [ms]
[OGL LOG][lduLduBase.H:294] 
Statistics:
	Time per iteration: 395 [mu s]
	Time per residual norm calculation: 132.000000 [mu s]
	Time per iteration and DOF: 0.395000 [ns]
	Retrieve results bandwith 2.915000 [GByte/s]
nonehipGKOCG:  Solving for p, Initial residual = 0.381674, Final residual = 8.20322e-05, No Iterations 771
linear solve p 348.572 [ms]
piso step 353.966 [ms]
 contErrors 
time step continuity errors : sum local = 2.14534e-09, global = -1.96112e-22, cumulative = -1.17541e-21
piso setup 17.054 [ms]
 correctNonOrthogonal 
 setRef 
 startSolve 
[OGL LOG][Proc: 0]global_index_init: 0.007 [ms]
[OGL LOG][Proc: 0]global_index_init: 0.002 [ms]
[OGL LOG][Proc: 0]update_host_matrix_data: 5.252 [ms]
[OGL LOG][Proc: 0]init_precond: 0.051 [ms]
frequency 101[OGL LOG][StoppingCriterion.H:589] Creating stopping criterion with minIter 462 frequency 10
[OGL LOG][Proc: 0]generate_solver: 0.004 [ms]
[OGL LOG][Proc: 0]solve: 300.59 [ms]
[OGL LOG][Proc: 0]copy_x_back: 0.34 [ms]
[OGL LOG][lduLduBase.H:294] 
Statistics:
	Time per iteration: 389 [mu s]
	Time per residual norm calculation: 125.000000 [mu s]
	Time per iteration and DOF: 0.389000 [ns]
	Retrieve results bandwith 2.941000 [GByte/s]
nonehipGKOCG:  Solving for p, Initial residual = 0.284783, Final residual = 5.61752e-05, No Iterations 771
linear solve p 338.642 [ms]
piso step 345.446 [ms]
 contErrors 
time step continuity errors : sum local = 1.53929e-09, global = -9.59792e-22, cumulative = -2.1352e-21
ExecutionTime = 3.94 s  ClockTime = 4 s

Time = 0.0003

Courant Number mean: 0.00317979 max: 0.0721774
DILUPBiCGStab:  Solving for Ux, Initial residual = 0.0963257, Final residual = 9.73983e-07, No Iterations 5
DILUPBiCGStab:  Solving for Uy, Initial residual = 0.140691, Final residual = 5.64827e-07, No Iterations 5
DILUPBiCGStab:  Solving for Uz, Initial residual = 0.205591, Final residual = 1.28969e-06, No Iterations 5
linear solve U 108.017 [ms]
piso setup 16.974 [ms]
 correctNonOrthogonal 
 setRef 
 startSolve 
[OGL LOG][Proc: 0]global_index_init: 0.029 [ms]
[OGL LOG][Proc: 0]global_index_init: 0.002 [ms]
[OGL LOG][Proc: 0]update_host_matrix_data: 5.078 [ms]
[OGL LOG][Proc: 0]init_precond: 0.05 [ms]
frequency 101[OGL LOG][StoppingCriterion.H:589] Creating stopping criterion with minIter 462 frequency 10
[OGL LOG][Proc: 0]generate_solver: 0.004 [ms]
[OGL LOG][Proc: 0]solve: 320.492 [ms]
[OGL LOG][Proc: 0]copy_x_back: 0.545 [ms]
[OGL LOG][lduLduBase.H:294] 
Statistics:
	Time per iteration: 426 [mu s]
	Time per residual norm calculation: 133.000000 [mu s]
	Time per iteration and DOF: 0.426000 [ns]
	Retrieve results bandwith 1.834000 [GByte/s]
nonehipGKOCG:  Solving for p, Initial residual = 0.128559, Final residual = 9.41873e-05, No Iterations 751
linear solve p 361.473 [ms]
piso step 369.236 [ms]
 contErrors 
time step continuity errors : sum local = 2.21924e-09, global = 2.74773e-23, cumulative = -2.10773e-21
piso setup 16.134 [ms]
 correctNonOrthogonal 
 setRef 
 startSolve 
[OGL LOG][Proc: 0]global_index_init: 0.04 [ms]
[OGL LOG][Proc: 0]global_index_init: 0.002 [ms]
[OGL LOG][Proc: 0]update_host_matrix_data: 5.87 [ms]
[OGL LOG][Proc: 0]init_precond: 0.053 [ms]
frequency 101[OGL LOG][StoppingCriterion.H:589] Creating stopping criterion with minIter 450 frequency 10
[OGL LOG][Proc: 0]generate_solver: 0.004 [ms]
[OGL LOG][Proc: 0]solve: 303.07 [ms]
[OGL LOG][Proc: 0]copy_x_back: 0.347 [ms]
[OGL LOG][lduLduBase.H:294] 
Statistics:
	Time per iteration: 409 [mu s]
	Time per residual norm calculation: 129.000000 [mu s]
	Time per iteration and DOF: 0.409000 [ns]
	Retrieve results bandwith 2.881000 [GByte/s]
nonehipGKOCG:  Solving for p, Initial residual = 0.0995964, Final residual = 8.0578e-05, No Iterations 741
linear solve p 345.588 [ms]
piso step 353.1 [ms]
 contErrors 
time step continuity errors : sum local = 1.92331e-09, global = -4.38061e-22, cumulative = -2.54579e-21
ExecutionTime = 4.82 s  ClockTime = 5 s

Time = 0.0004

Courant Number mean: 0.00397985 max: 0.0793326
DILUPBiCGStab:  Solving for Ux, Initial residual = 0.0593651, Final residual = 4.7211e-07, No Iterations 5
DILUPBiCGStab:  Solving for Uy, Initial residual = 0.0868086, Final residual = 2.90808e-07, No Iterations 5
DILUPBiCGStab:  Solving for Uz, Initial residual = 0.127078, Final residual = 6.2798e-07, No Iterations 5
linear solve U 101.436 [ms]
piso setup 14.802 [ms]
 correctNonOrthogonal 
 setRef 
 startSolve 
[OGL LOG][Proc: 0]global_index_init: 0.017 [ms]
[OGL LOG][Proc: 0]global_index_init: 0.002 [ms]
[OGL LOG][Proc: 0]update_host_matrix_data: 5.162 [ms]
[OGL LOG][Proc: 0]init_precond: 0.053 [ms]
frequency 101[OGL LOG][StoppingCriterion.H:589] Creating stopping criterion with minIter 444 frequency 10
[OGL LOG][Proc: 0]generate_solver: 0.004 [ms]
[OGL LOG][Proc: 0]solve: 284.961 [ms]
[OGL LOG][Proc: 0]copy_x_back: 0.334 [ms]
[OGL LOG][lduLduBase.H:294] 
Statistics:
	Time per iteration: 389 [mu s]
	Time per residual norm calculation: 128.000000 [mu s]
	Time per iteration and DOF: 0.389000 [ns]
	Retrieve results bandwith 2.994000 [GByte/s]
nonehipGKOCG:  Solving for p, Initial residual = 0.0642493, Final residual = 9.14802e-05, No Iterations 731
linear solve p 326.061 [ms]
piso step 332.473 [ms]
 contErrors 
time step continuity errors : sum local = 2.12083e-09, global = -3.84994e-22, cumulative = -2.93078e-21
piso setup 12.578 [ms]
 correctNonOrthogonal 
 setRef 
 startSolve 
[OGL LOG][Proc: 0]global_index_init: 0.017 [ms]
[OGL LOG][Proc: 0]global_index_init: 0.003 [ms]
[OGL LOG][Proc: 0]update_host_matrix_data: 5.096 [ms]
[OGL LOG][Proc: 0]init_precond: 0.051 [ms]
frequency 101[OGL LOG][StoppingCriterion.H:589] Creating stopping criterion with minIter 438 frequency 10
[OGL LOG][Proc: 0]generate_solver: 0.004 [ms]
[OGL LOG][Proc: 0]solve: 298.63 [ms]
[OGL LOG][Proc: 0]copy_x_back: 0.442 [ms]
[OGL LOG][lduLduBase.H:294] 
Statistics:
	Time per iteration: 414 [mu s]
	Time per residual norm calculation: 139.000000 [mu s]
	Time per iteration and DOF: 0.414000 [ns]
	Retrieve results bandwith 2.262000 [GByte/s]
nonehipGKOCG:  Solving for p, Initial residual = 0.049694, Final residual = 9.80808e-05, No Iterations 721
linear solve p 338.417 [ms]
piso step 345.419 [ms]
 contErrors 
time step continuity errors : sum local = 2.3092e-09, global = -3.1159e-22, cumulative = -3.24237e-21
ExecutionTime = 5.65 s  ClockTime = 6 s

Time = 0.0005

Courant Number mean: 0.0046013 max: 0.0828851
DILUPBiCGStab:  Solving for Ux, Initial residual = 0.0428599, Final residual = 3.10042e-07, No Iterations 5
DILUPBiCGStab:  Solving for Uy, Initial residual = 0.061865, Final residual = 1.66959e-07, No Iterations 5
DILUPBiCGStab:  Solving for Uz, Initial residual = 0.0970976, Final residual = 4.22274e-07, No Iterations 5
linear solve U 110.453 [ms]
piso setup 16.339 [ms]
 correctNonOrthogonal 
 setRef 
 startSolve 
[OGL LOG][Proc: 0]global_index_init: 0.071 [ms]
[OGL LOG][Proc: 0]global_index_init: 0.003 [ms]
[OGL LOG][Proc: 0]update_host_matrix_data: 5.858 [ms]
[OGL LOG][Proc: 0]init_precond: 0.056 [ms]
frequency 101[OGL LOG][StoppingCriterion.H:589] Creating stopping criterion with minIter 432 frequency 10
[OGL LOG][Proc: 0]generate_solver: 0.004 [ms]
[OGL LOG][Proc: 0]solve: 280.917 [ms]
[OGL LOG][Proc: 0]copy_x_back: 0.333 [ms]
[OGL LOG][lduLduBase.H:294] 
Statistics:
	Time per iteration: 389 [mu s]
	Time per residual norm calculation: 124.000000 [mu s]
	Time per iteration and DOF: 0.389000 [ns]
	Retrieve results bandwith 3.003000 [GByte/s]
nonehipGKOCG:  Solving for p, Initial residual = 0.0389439, Final residual = 7.77355e-05, No Iterations 721
linear solve p 322.567 [ms]
piso step 329.053 [ms]
 contErrors 
time step continuity errors : sum local = 1.82842e-09, global = -7.91246e-22, cumulative = -4.03362e-21
piso setup 14.928 [ms]
 correctNonOrthogonal 
 setRef 
 startSolve 
[OGL LOG][Proc: 0]global_index_init: 0.035 [ms]
[OGL LOG][Proc: 0]global_index_init: 0.002 [ms]
[OGL LOG][Proc: 0]update_host_matrix_data: 5.129 [ms]
[OGL LOG][Proc: 0]init_precond: 0.057 [ms]
frequency 101[OGL LOG][StoppingCriterion.H:589] Creating stopping criterion with minIter 432 frequency 10
[OGL LOG][Proc: 0]generate_solver: 0.004 [ms]
[OGL LOG][Proc: 0]solve: 280.461 [ms]
[OGL LOG][Proc: 0]copy_x_back: 0.343 [ms]
[OGL LOG][lduLduBase.H:294] 
Statistics:
	Time per iteration: 388 [mu s]
	Time per residual norm calculation: 125.000000 [mu s]
	Time per iteration and DOF: 0.388000 [ns]
	Retrieve results bandwith 2.915000 [GByte/s]
nonehipGKOCG:  Solving for p, Initial residual = 0.0305783, Final residual = 6.03941e-05, No Iterations 721
linear solve p 320.17 [ms]
piso step 325.197 [ms]
 contErrors 
time step continuity errors : sum local = 1.43069e-09, global = 6.66446e-23, cumulative = -3.96697e-21
ExecutionTime = 6.47 s  ClockTime = 7 s

Time = 0.0006

Courant Number mean: 0.00511864 max: 0.0850108
DILUPBiCGStab:  Solving for Ux, Initial residual = 0.0336738, Final residual = 2.21836e-07, No Iterations 5
DILUPBiCGStab:  Solving for Uy, Initial residual = 0.0480392, Final residual = 1.1549e-07, No Iterations 5
DILUPBiCGStab:  Solving for Uz, Initial residual = 0.079454, Final residual = 3.32713e-07, No Iterations 5
linear solve U 100.439 [ms]
piso setup 13.636 [ms]
 correctNonOrthogonal 
 setRef 
 startSolve 
[OGL LOG][Proc: 0]global_index_init: 0.031 [ms]
[OGL LOG][Proc: 0]global_index_init: 0.002 [ms]
[OGL LOG][Proc: 0]update_host_matrix_data: 5.099 [ms]
[OGL LOG][Proc: 0]init_precond: 0.051 [ms]
frequency 101[OGL LOG][StoppingCriterion.H:589] Creating stopping criterion with minIter 432 frequency 10
[OGL LOG][Proc: 0]generate_solver: 0.004 [ms]
[OGL LOG][Proc: 0]solve: 281.917 [ms]
[OGL LOG][Proc: 0]copy_x_back: 0.34 [ms]
[OGL LOG][lduLduBase.H:294] 
Statistics:
	Time per iteration: 391 [mu s]
	Time per residual norm calculation: 125.000000 [mu s]
	Time per iteration and DOF: 0.391000 [ns]
	Retrieve results bandwith 2.941000 [GByte/s]
nonehipGKOCG:  Solving for p, Initial residual = 0.0268221, Final residual = 5.76893e-05, No Iterations 721
linear solve p 320.306 [ms]
piso step 326.565 [ms]
 contErrors 
time step continuity errors : sum local = 1.36845e-09, global = -9.55216e-22, cumulative = -4.92219e-21
piso setup 12.728 [ms]
 correctNonOrthogonal 
 setRef 
 startSolve 
[OGL LOG][Proc: 0]global_index_init: 0.046 [ms]
[OGL LOG][Proc: 0]global_index_init: 0.002 [ms]
[OGL LOG][Proc: 0]update_host_matrix_data: 5.119 [ms]
[OGL LOG][Proc: 0]init_precond: 0.055 [ms]
frequency 101[OGL LOG][StoppingCriterion.H:589] Creating stopping criterion with minIter 432 frequency 10
[OGL LOG][Proc: 0]generate_solver: 0.004 [ms]
[OGL LOG][Proc: 0]solve: 280.529 [ms]
[OGL LOG][Proc: 0]copy_x_back: 0.338 [ms]
[OGL LOG][lduLduBase.H:294] 
Statistics:
	Time per iteration: 400 [mu s]
	Time per residual norm calculation: 124.000000 [mu s]
	Time per iteration and DOF: 0.400000 [ns]
	Retrieve results bandwith 2.958000 [GByte/s]
nonehipGKOCG:  Solving for p, Initial residual = 0.0212638, Final residual = 9.91946e-05, No Iterations 701
linear solve p 319.382 [ms]
piso step 325.333 [ms]
 contErrors 
time step continuity errors : sum local = 2.36577e-09, global = -8.32948e-22, cumulative = -5.75514e-21
ExecutionTime = 7.28 s  ClockTime = 7 s

Time = 0.0007

Courant Number mean: 0.00556497 max: 0.086455
DILUPBiCGStab:  Solving for Ux, Initial residual = 0.0277685, Final residual = 1.62598e-07, No Iterations 5
DILUPBiCGStab:  Solving for Uy, Initial residual = 0.0392331, Final residual = 8.88414e-08, No Iterations 5
DILUPBiCGStab:  Solving for Uz, Initial residual = 0.0673357, Final residual = 2.68961e-07, No Iterations 5
linear solve U 112.95 [ms]
piso setup 16.488 [ms]
 correctNonOrthogonal 
 setRef 
 startSolve 
[OGL LOG][Proc: 0]global_index_init: 0.016 [ms]
[OGL LOG][Proc: 0]global_index_init: 0.002 [ms]
[OGL LOG][Proc: 0]update_host_matrix_data: 5.938 [ms]
[OGL LOG][Proc: 0]init_precond: 0.051 [ms]
frequency 101[OGL LOG][StoppingCriterion.H:589] Creating stopping criterion with minIter 420 frequency 10
[OGL LOG][Proc: 0]generate_solver: 0.004 [ms]
[OGL LOG][Proc: 0]solve: 183.956 [ms]
[OGL LOG][Proc: 0]copy_x_back: 0.45 [ms]
[OGL LOG][lduLduBase.H:294] 
Statistics:
	Time per iteration: 436 [mu s]
	Time per residual norm calculation: 148.000000 [mu s]
	Time per iteration and DOF: 0.436000 [ns]
	Retrieve results bandwith 2.222000 [GByte/s]
nonehipGKOCG:  Solving for p, Initial residual = 0.0207599, Final residual = 7.89308e-05, No Iterations 421
linear solve p 229.294 [ms]
piso step 235.7 [ms]
 contErrors 
time step continuity errors : sum local = 2.05524e-09, global = -3.06326e-22, cumulative = -6.06146e-21
piso setup 14.717 [ms]
 correctNonOrthogonal 
 setRef 
 startSolve 
[OGL LOG][Proc: 0]global_index_init: 0.027 [ms]
[OGL LOG][Proc: 0]global_index_init: 0.002 [ms]
[OGL LOG][Proc: 0]update_host_matrix_data: 5.136 [ms]
[OGL LOG][Proc: 0]init_precond: 0.052 [ms]
frequency 101[OGL LOG][StoppingCriterion.H:589] Creating stopping criterion with minIter 252 frequency 10
[OGL LOG][Proc: 0]generate_solver: 0.004 [ms]
[OGL LOG][Proc: 0]solve: 121.087 [ms]
[OGL LOG][Proc: 0]copy_x_back: 0.343 [ms]
[OGL LOG][lduLduBase.H:294] 
Statistics:
	Time per iteration: 402 [mu s]
	Time per residual norm calculation: 125.000000 [mu s]
	Time per iteration and DOF: 0.402000 [ns]
	Retrieve results bandwith 2.915000 [GByte/s]
nonehipGKOCG:  Solving for p, Initial residual = 0.016502, Final residual = 7.91304e-05, No Iterations 301
linear solve p 162.697 [ms]
piso step 168.583 [ms]
 contErrors 
time step continuity errors : sum local = 1.96267e-09, global = 5.36251e-22, cumulative = -5.52521e-21
ExecutionTime = 7.86 s  ClockTime = 8 s

Time = 0.0008

Courant Number mean: 0.0059623 max: 0.0875193
DILUPBiCGStab:  Solving for Ux, Initial residual = 0.0236242, Final residual = 1.30749e-07, No Iterations 5
DILUPBiCGStab:  Solving for Uy, Initial residual = 0.0331364, Final residual = 7.13817e-08, No Iterations 5
DILUPBiCGStab:  Solving for Uz, Initial residual = 0.0588444, Final residual = 2.20541e-07, No Iterations 5
linear solve U 101.272 [ms]
piso setup 13.066 [ms]
 correctNonOrthogonal 
 setRef 
 startSolve 
[OGL LOG][Proc: 0]global_index_init: 0.029 [ms]
[OGL LOG][Proc: 0]global_index_init: 0.002 [ms]
[OGL LOG][Proc: 0]update_host_matrix_data: 5.078 [ms]
[OGL LOG][Proc: 0]init_precond: 0.053 [ms]
frequency 101[OGL LOG][StoppingCriterion.H:589] Creating stopping criterion with minIter 180 frequency 10
[OGL LOG][Proc: 0]generate_solver: 0.004 [ms]
[OGL LOG][Proc: 0]solve: 128.091 [ms]
[OGL LOG][Proc: 0]copy_x_back: 0.368 [ms]
[OGL LOG][lduLduBase.H:294] 
Statistics:
	Time per iteration: 425 [mu s]
	Time per residual norm calculation: 130.000000 [mu s]
	Time per iteration and DOF: 0.425000 [ns]
	Retrieve results bandwith 2.717000 [GByte/s]
nonehipGKOCG:  Solving for p, Initial residual = 0.0166471, Final residual = 7.91684e-05, No Iterations 301
linear solve p 166.19 [ms]
piso step 172.436 [ms]
 contErrors 
time step continuity errors : sum local = 2.04042e-09, global = 4.29289e-22, cumulative = -5.09592e-21
piso setup 15.083 [ms]
 correctNonOrthogonal 
 setRef 
 startSolve 
[OGL LOG][Proc: 0]global_index_init: 0.033 [ms]
[OGL LOG][Proc: 0]global_index_init: 0.002 [ms]
[OGL LOG][Proc: 0]update_host_matrix_data: 5.236 [ms]
[OGL LOG][Proc: 0]init_precond: 0.052 [ms]
frequency 101[OGL LOG][StoppingCriterion.H:589] Creating stopping criterion with minIter 180 frequency 10
[OGL LOG][Proc: 0]generate_solver: 0.004 [ms]
[OGL LOG][Proc: 0]solve: 119.062 [ms]
[OGL LOG][Proc: 0]copy_x_back: 0.342 [ms]
[OGL LOG][lduLduBase.H:294] 
Statistics:
	Time per iteration: 409 [mu s]
	Time per residual norm calculation: 127.000000 [mu s]
	Time per iteration and DOF: 0.409000 [ns]
	Retrieve results bandwith 2.923000 [GByte/s]
nonehipGKOCG:  Solving for p, Initial residual = 0.0133414, Final residual = 8.4334e-05, No Iterations 291
linear solve p 158.163 [ms]
piso step 163.748 [ms]
 contErrors 
time step continuity errors : sum local = 2.11374e-09, global = -3.57983e-22, cumulative = -5.45391e-21
ExecutionTime = 8.34 s  ClockTime = 8 s

Time = 0.0009

Courant Number mean: 0.00631847 max: 0.0883467
DILUPBiCGStab:  Solving for Ux, Initial residual = 0.0205606, Final residual = 1.09907e-07, No Iterations 5
DILUPBiCGStab:  Solving for Uy, Initial residual = 0.0286496, Final residual = 5.97128e-08, No Iterations 5
DILUPBiCGStab:  Solving for Uz, Initial residual = 0.0519918, Final residual = 1.80526e-07, No Iterations 5
linear solve U 102.396 [ms]
piso setup 12.251 [ms]
 correctNonOrthogonal 
 setRef 
 startSolve 
[OGL LOG][Proc: 0]global_index_init: 0.042 [ms]
[OGL LOG][Proc: 0]global_index_init: 0.003 [ms]
[OGL LOG][Proc: 0]update_host_matrix_data: 5.208 [ms]
[OGL LOG][Proc: 0]init_precond: 0.053 [ms]
frequency 101[OGL LOG][StoppingCriterion.H:589] Creating stopping criterion with minIter 174 frequency 10
[OGL LOG][Proc: 0]generate_solver: 0.004 [ms]
[OGL LOG][Proc: 0]solve: 117.735 [ms]
[OGL LOG][Proc: 0]copy_x_back: 0.342 [ms]
[OGL LOG][lduLduBase.H:294] 
Statistics:
	Time per iteration: 404 [mu s]
	Time per residual norm calculation: 134.000000 [mu s]
	Time per iteration and DOF: 0.404000 [ns]
	Retrieve results bandwith 2.923000 [GByte/s]
nonehipGKOCG:  Solving for p, Initial residual = 0.013841, Final residual = 8.99737e-05, No Iterations 291
linear solve p 156.708 [ms]
piso step 161.51 [ms]
 contErrors 
time step continuity errors : sum local = 2.33413e-09, global = -4.43152e-22, cumulative = -5.89706e-21
piso setup 13.402 [ms]
 correctNonOrthogonal 
 setRef 
 startSolve 
[OGL LOG][Proc: 0]global_index_init: 0.047 [ms]
[OGL LOG][Proc: 0]global_index_init: 0.002 [ms]
[OGL LOG][Proc: 0]update_host_matrix_data: 5.106 [ms]
[OGL LOG][Proc: 0]init_precond: 0.053 [ms]
frequency 101[OGL LOG][StoppingCriterion.H:589] Creating stopping criterion with minIter 174 frequency 10
[OGL LOG][Proc: 0]generate_solver: 0.004 [ms]
[OGL LOG][Proc: 0]solve: 126.259 [ms]
[OGL LOG][Proc: 0]copy_x_back: 0.338 [ms]
[OGL LOG][lduLduBase.H:294] 
Statistics:
	Time per iteration: 433 [mu s]
	Time per residual norm calculation: 132.000000 [mu s]
	Time per iteration and DOF: 0.433000 [ns]
	Retrieve results bandwith 2.958000 [GByte/s]
nonehipGKOCG:  Solving for p, Initial residual = 0.0111539, Final residual = 6.50608e-05, No Iterations 291
linear solve p 165.08 [ms]
piso step 169.902 [ms]
 contErrors 
time step continuity errors : sum local = 1.67885e-09, global = -6.18566e-22, cumulative = -6.51562e-21
ExecutionTime = 8.82 s  ClockTime = 9 s

Time = 0.001

Courant Number mean: 0.00664438 max: 0.0890141
DILUPBiCGStab:  Solving for Ux, Initial residual = 0.0181844, Final residual = 9.44108e-08, No Iterations 5
DILUPBiCGStab:  Solving for Uy, Initial residual = 0.0252124, Final residual = 5.13983e-08, No Iterations 5
DILUPBiCGStab:  Solving for Uz, Initial residual = 0.046502, Final residual = 1.48245e-07, No Iterations 5
linear solve U 100.245 [ms]
piso setup 12.176 [ms]
 correctNonOrthogonal 
 setRef 
 startSolve 
[OGL LOG][Proc: 0]global_index_init: 0.024 [ms]
[OGL LOG][Proc: 0]global_index_init: 0.002 [ms]
[OGL LOG][Proc: 0]update_host_matrix_data: 5.08 [ms]
[OGL LOG][Proc: 0]init_precond: 0.053 [ms]
frequency 101[OGL LOG][StoppingCriterion.H:589] Creating stopping criterion with minIter 174 frequency 10
[OGL LOG][Proc: 0]generate_solver: 0.005 [ms]
[OGL LOG][Proc: 0]solve: 118.446 [ms]
[OGL LOG][Proc: 0]copy_x_back: 0.334 [ms]
[OGL LOG][lduLduBase.H:294] 
Statistics:
	Time per iteration: 407 [mu s]
	Time per residual norm calculation: 129.000000 [mu s]
	Time per iteration and DOF: 0.407000 [ns]
	Retrieve results bandwith 2.994000 [GByte/s]
nonehipGKOCG:  Solving for p, Initial residual = 0.0118228, Final residual = 7.81797e-05, No Iterations 291
linear solve p 158.311 [ms]
piso step 164.294 [ms]
 contErrors 
time step continuity errors : sum local = 2.05998e-09, global = -9.36989e-23, cumulative = -6.60932e-21
piso setup 13.985 [ms]
 correctNonOrthogonal 
 setRef 
 startSolve 
[OGL LOG][Proc: 0]global_index_init: 0.061 [ms]
[OGL LOG][Proc: 0]global_index_init: 0.003 [ms]
[OGL LOG][Proc: 0]update_host_matrix_data: 5.141 [ms]
[OGL LOG][Proc: 0]init_precond: 0.051 [ms]
frequency 101[OGL LOG][StoppingCriterion.H:589] Creating stopping criterion with minIter 174 frequency 10
[OGL LOG][Proc: 0]generate_solver: 0.004 [ms]
[OGL LOG][Proc: 0]solve: 120.503 [ms]
[OGL LOG][Proc: 0]copy_x_back: 0.341 [ms]
[OGL LOG][lduLduBase.H:294] 
Statistics:
	Time per iteration: 428 [mu s]
	Time per residual norm calculation: 128.000000 [mu s]
	Time per iteration and DOF: 0.428000 [ns]
	Retrieve results bandwith 2.932000 [GByte/s]
nonehipGKOCG:  Solving for p, Initial residual = 0.00956541, Final residual = 9.43927e-05, No Iterations 281
linear solve p 159.953 [ms]
piso step 165.464 [ms]
 contErrors 
time step continuity errors : sum local = 2.41362e-09, global = -7.44297e-22, cumulative = -7.35362e-21
ExecutionTime = 9.3 s  ClockTime = 9 s

Time = 0.0011

Courant Number mean: 0.00694533 max: 0.0895673
DILUPBiCGStab:  Solving for Ux, Initial residual = 0.016298, Final residual = 8.23133e-08, No Iterations 5
DILUPBiCGStab:  Solving for Uy, Initial residual = 0.0224933, Final residual = 4.516e-08, No Iterations 5
DILUPBiCGStab:  Solving for Uz, Initial residual = 0.0420277, Final residual = 1.22458e-07, No Iterations 5
linear solve U 101.361 [ms]
piso setup 16.184 [ms]
 correctNonOrthogonal 
 setRef 
 startSolve 
[OGL LOG][Proc: 0]global_index_init: 0.026 [ms]
[OGL LOG][Proc: 0]global_index_init: 0.002 [ms]
[OGL LOG][Proc: 0]update_host_matrix_data: 5.051 [ms]
[OGL LOG][Proc: 0]init_precond: 0.049 [ms]
frequency 101[OGL LOG][StoppingCriterion.H:589] Creating stopping criterion with minIter 168 frequency 10
[OGL LOG][Proc: 0]generate_solver: 0.004 [ms]
[OGL LOG][Proc: 0]solve: 123.707 [ms]
[OGL LOG][Proc: 0]copy_x_back: 0.336 [ms]
[OGL LOG][lduLduBase.H:294] 
Statistics:
	Time per iteration: 425 [mu s]
	Time per residual norm calculation: 128.000000 [mu s]
	Time per iteration and DOF: 0.425000 [ns]
	Retrieve results bandwith 2.976000 [GByte/s]
nonehipGKOCG:  Solving for p, Initial residual = 0.0102521, Final residual = 6.62655e-05, No Iterations 291
linear solve p 164.258 [ms]
piso step 170.484 [ms]
 contErrors 
time step continuity errors : sum local = 1.78586e-09, global = -2.3821e-21, cumulative = -9.73572e-21
piso setup 14.727 [ms]
 correctNonOrthogonal 
 setRef 
 startSolve 
[OGL LOG][Proc: 0]global_index_init: 0.046 [ms]
[OGL LOG][Proc: 0]global_index_init: 0.002 [ms]
[OGL LOG][Proc: 0]update_host_matrix_data: 5.113 [ms]
[OGL LOG][Proc: 0]init_precond: 0.057 [ms]
frequency 101[OGL LOG][StoppingCriterion.H:589] Creating stopping criterion with minIter 174 frequency 10
[OGL LOG][Proc: 0]generate_solver: 0.004 [ms]
[OGL LOG][Proc: 0]solve: 114.562 [ms]
[OGL LOG][Proc: 0]copy_x_back: 0.453 [ms]
[OGL LOG][lduLduBase.H:294] 
Statistics:
	Time per iteration: 407 [mu s]
	Time per residual norm calculation: 137.000000 [mu s]
	Time per iteration and DOF: 0.407000 [ns]
	Retrieve results bandwith 2.207000 [GByte/s]
nonehipGKOCG:  Solving for p, Initial residual = 0.0082909, Final residual = 8.17032e-05, No Iterations 281
linear solve p 163.602 [ms]
piso step 170.108 [ms]
 contErrors 
time step continuity errors : sum local = 2.1261e-09, global = 4.74595e-22, cumulative = -9.26113e-21
ExecutionTime = 9.8 s  ClockTime = 10 s

Time = 0.0012

Courant Number mean: 0.0072238 max: 0.0900356
DILUPBiCGStab:  Solving for Ux, Initial residual = 0.0147478, Final residual = 7.26046e-08, No Iterations 5
DILUPBiCGStab:  Solving for Uy, Initial residual = 0.0202889, Final residual = 4.02708e-08, No Iterations 5
DILUPBiCGStab:  Solving for Uz, Initial residual = 0.0382998, Final residual = 1.02242e-07, No Iterations 5
linear solve U 102.879 [ms]
piso setup 12.14 [ms]
 correctNonOrthogonal 
 setRef 
 startSolve 
[OGL LOG][Proc: 0]global_index_init: 0.028 [ms]
[OGL LOG][Proc: 0]global_index_init: 0.002 [ms]
[OGL LOG][Proc: 0]update_host_matrix_data: 5.778 [ms]
[OGL LOG][Proc: 0]init_precond: 0.053 [ms]
frequency 101[OGL LOG][StoppingCriterion.H:589] Creating stopping criterion with minIter 168 frequency 10
[OGL LOG][Proc: 0]generate_solver: 0.004 [ms]
[OGL LOG][Proc: 0]solve: 119.073 [ms]
[OGL LOG][Proc: 0]copy_x_back: 0.333 [ms]
[OGL LOG][lduLduBase.H:294] 
Statistics:
	Time per iteration: 423 [mu s]
	Time per residual norm calculation: 127.000000 [mu s]
	Time per iteration and DOF: 0.423000 [ns]
	Retrieve results bandwith 3.003000 [GByte/s]
nonehipGKOCG:  Solving for p, Initial residual = 0.00896474, Final residual = 8.98005e-05, No Iterations 281
linear solve p 157.265 [ms]
piso step 163.183 [ms]
 contErrors 
time step continuity errors : sum local = 2.37189e-09, global = 4.37175e-22, cumulative = -8.82395e-21
piso setup 20.551 [ms]
 correctNonOrthogonal 
 setRef 
 startSolve 
[OGL LOG][Proc: 0]global_index_init: 0.051 [ms]
[OGL LOG][Proc: 0]global_index_init: 0.002 [ms]
[OGL LOG][Proc: 0]update_host_matrix_data: 5.236 [ms]
[OGL LOG][Proc: 0]init_precond: 0.052 [ms]
frequency 101[OGL LOG][StoppingCriterion.H:589] Creating stopping criterion with minIter 168 frequency 10
[OGL LOG][Proc: 0]generate_solver: 0.004 [ms]
[OGL LOG][Proc: 0]solve: 115.285 [ms]
[OGL LOG][Proc: 0]copy_x_back: 0.346 [ms]
[OGL LOG][lduLduBase.H:294] 
Statistics:
	Time per iteration: 410 [mu s]
	Time per residual norm calculation: 132.000000 [mu s]
	Time per iteration and DOF: 0.410000 [ns]
	Retrieve results bandwith 2.890000 [GByte/s]
nonehipGKOCG:  Solving for p, Initial residual = 0.00730931, Final residual = 6.81788e-05, No Iterations 281
linear solve p 155.491 [ms]
piso step 161.136 [ms]
 contErrors 
time step continuity errors : sum local = 1.81289e-09, global = -2.01667e-22, cumulative = -9.02562e-21
ExecutionTime = 10.28 s  ClockTime = 10 s

Time = 0.0013

Courant Number mean: 0.00748302 max: 0.0904387
DILUPBiCGStab:  Solving for Ux, Initial residual = 0.0134666, Final residual = 6.47275e-08, No Iterations 5
DILUPBiCGStab:  Solving for Uy, Initial residual = 0.0184656, Final residual = 3.6307e-08, No Iterations 5
DILUPBiCGStab:  Solving for Uz, Initial residual = 0.0351613, Final residual = 8.66718e-08, No Iterations 5
linear solve U 100.707 [ms]
piso setup 12.066 [ms]
 correctNonOrthogonal 
 setRef 
 startSolve 
[OGL LOG][Proc: 0]global_index_init: 0.027 [ms]
[OGL LOG][Proc: 0]global_index_init: 0.002 [ms]
[OGL LOG][Proc: 0]update_host_matrix_data: 5.079 [ms]
[OGL LOG][Proc: 0]init_precond: 0.052 [ms]
frequency 101[OGL LOG][StoppingCriterion.H:589] Creating stopping criterion with minIter 168 frequency 10
[OGL LOG][Proc: 0]generate_solver: 0.004 [ms]
[OGL LOG][Proc: 0]solve: 114.948 [ms]
[OGL LOG][Proc: 0]copy_x_back: 0.336 [ms]
[OGL LOG][lduLduBase.H:294] 
Statistics:
	Time per iteration: 409 [mu s]
	Time per residual norm calculation: 126.000000 [mu s]
	Time per iteration and DOF: 0.409000 [ns]
	Retrieve results bandwith 2.976000 [GByte/s]
nonehipGKOCG:  Solving for p, Initial residual = 0.00804702, Final residual = 8.43563e-05, No Iterations 281
linear solve p 154.36 [ms]
piso step 159.344 [ms]
 contErrors 
time step continuity errors : sum local = 2.25145e-09, global = -4.75288e-22, cumulative = -9.50091e-21
piso setup 12.412 [ms]
 correctNonOrthogonal 
 setRef 
 startSolve 
[OGL LOG][Proc: 0]global_index_init: 0.044 [ms]
[OGL LOG][Proc: 0]global_index_init: 0.002 [ms]
[OGL LOG][Proc: 0]update_host_matrix_data: 5.114 [ms]
[OGL LOG][Proc: 0]init_precond: 0.051 [ms]
frequency 101[OGL LOG][StoppingCriterion.H:589] Creating stopping criterion with minIter 168 frequency 10
[OGL LOG][Proc: 0]generate_solver: 0.004 [ms]
[OGL LOG][Proc: 0]solve: 110.916 [ms]
[OGL LOG][Proc: 0]copy_x_back: 0.332 [ms]
[OGL LOG][lduLduBase.H:294] 
Statistics:
	Time per iteration: 409 [mu s]
	Time per residual norm calculation: 129.000000 [mu s]
	Time per iteration and DOF: 0.409000 [ns]
	Retrieve results bandwith 3.012000 [GByte/s]
nonehipGKOCG:  Solving for p, Initial residual = 0.00658217, Final residual = 9.97536e-05, No Iterations 271
linear solve p 149.785 [ms]
piso step 154.514 [ms]
 contErrors 
time step continuity errors : sum local = 2.60188e-09, global = -8.71021e-23, cumulative = -9.58801e-21
ExecutionTime = 10.74 s  ClockTime = 11 s

Time = 0.0014

Courant Number mean: 0.00772784 max: 0.0907903
DILUPBiCGStab:  Solving for Ux, Initial residual = 0.0123791, Final residual = 5.82099e-08, No Iterations 5
DILUPBiCGStab:  Solving for Uy, Initial residual = 0.0169328, Final residual = 3.30149e-08, No Iterations 5
DILUPBiCGStab:  Solving for Uz, Initial residual = 0.0324769, Final residual = 7.49152e-08, No Iterations 5
linear solve U 99.982 [ms]
piso setup 12.156 [ms]
 correctNonOrthogonal 
 setRef 
 startSolve 
[OGL LOG][Proc: 0]global_index_init: 0.03 [ms]
[OGL LOG][Proc: 0]global_index_init: 0.002 [ms]
[OGL LOG][Proc: 0]update_host_matrix_data: 5.052 [ms]
[OGL LOG][Proc: 0]init_precond: 0.061 [ms]
frequency 101[OGL LOG][StoppingCriterion.H:589] Creating stopping criterion with minIter 162 frequency 10
[OGL LOG][Proc: 0]generate_solver: 0.004 [ms]
[OGL LOG][Proc: 0]solve: 115.142 [ms]
[OGL LOG][Proc: 0]copy_x_back: 0.338 [ms]
[OGL LOG][lduLduBase.H:294] 
Statistics:
	Time per iteration: 409 [mu s]
	Time per residual norm calculation: 129.000000 [mu s]
	Time per iteration and DOF: 0.409000 [ns]
	Retrieve results bandwith 2.958000 [GByte/s]
nonehipGKOCG:  Solving for p, Initial residual = 0.00723342, Final residual = 7.14553e-05, No Iterations 281
linear solve p 151.807 [ms]
piso step 156.746 [ms]
 contErrors 
time step continuity errors : sum local = 1.94559e-09, global = -3.5272e-22, cumulative = -9.94073e-21
piso setup 13.138 [ms]
 correctNonOrthogonal 
 setRef 
 startSolve 
[OGL LOG][Proc: 0]global_index_init: 0.064 [ms]
[OGL LOG][Proc: 0]global_index_init: 0.002 [ms]
[OGL LOG][Proc: 0]update_host_matrix_data: 5.122 [ms]
[OGL LOG][Proc: 0]init_precond: 0.051 [ms]
frequency 101[OGL LOG][StoppingCriterion.H:589] Creating stopping criterion with minIter 168 frequency 10
[OGL LOG][Proc: 0]generate_solver: 0.004 [ms]
[OGL LOG][Proc: 0]solve: 111.449 [ms]
[OGL LOG][Proc: 0]copy_x_back: 0.336 [ms]
[OGL LOG][lduLduBase.H:294] 
Statistics:
	Time per iteration: 411 [mu s]
	Time per residual norm calculation: 128.000000 [mu s]
	Time per iteration and DOF: 0.411000 [ns]
	Retrieve results bandwith 2.976000 [GByte/s]
nonehipGKOCG:  Solving for p, Initial residual = 0.00590262, Final residual = 8.80871e-05, No Iterations 271
linear solve p 149.219 [ms]
piso step 154.098 [ms]
 contErrors 
time step continuity errors : sum local = 2.32993e-09, global = -4.82577e-22, cumulative = -1.04233e-20
ExecutionTime = 11.21 s  ClockTime = 11 s

Time = 0.0015

Courant Number mean: 0.00795862 max: 0.0911006
DILUPBiCGStab:  Solving for Ux, Initial residual = 0.0114467, Final residual = 5.27556e-08, No Iterations 5
DILUPBiCGStab:  Solving for Uy, Initial residual = 0.0156262, Final residual = 3.02517e-08, No Iterations 5
DILUPBiCGStab:  Solving for Uz, Initial residual = 0.0301549, Final residual = 6.59688e-08, No Iterations 5
linear solve U 100.311 [ms]
piso setup 13.545 [ms]
 correctNonOrthogonal 
 setRef 
 startSolve 
[OGL LOG][Proc: 0]global_index_init: 0.046 [ms]
[OGL LOG][Proc: 0]global_index_init: 0.002 [ms]
[OGL LOG][Proc: 0]update_host_matrix_data: 5.058 [ms]
[OGL LOG][Proc: 0]init_precond: 0.051 [ms]
frequency 101[OGL LOG][StoppingCriterion.H:589] Creating stopping criterion with minIter 162 frequency 10
[OGL LOG][Proc: 0]generate_solver: 0.004 [ms]
[OGL LOG][Proc: 0]solve: 115.327 [ms]
[OGL LOG][Proc: 0]copy_x_back: 0.336 [ms]
[OGL LOG][lduLduBase.H:294] 
Statistics:
	Time per iteration: 410 [mu s]
	Time per residual norm calculation: 130.000000 [mu s]
	Time per iteration and DOF: 0.410000 [ns]
	Retrieve results bandwith 2.976000 [GByte/s]
nonehipGKOCG:  Solving for p, Initial residual = 0.0065044, Final residual = 6.67936e-05, No Iterations 281
linear solve p 153.027 [ms]
piso step 157.809 [ms]
 contErrors 
time step continuity errors : sum local = 1.83997e-09, global = -8.00607e-23, cumulative = -1.05034e-20
piso setup 11.74 [ms]
 correctNonOrthogonal 
 setRef 
 startSolve 
[OGL LOG][Proc: 0]global_index_init: 0.054 [ms]
[OGL LOG][Proc: 0]global_index_init: 0.002 [ms]
[OGL LOG][Proc: 0]update_host_matrix_data: 5.288 [ms]
[OGL LOG][Proc: 0]init_precond: 0.051 [ms]
frequency 101[OGL LOG][StoppingCriterion.H:589] Creating stopping criterion with minIter 168 frequency 10
[OGL LOG][Proc: 0]generate_solver: 0.004 [ms]
[OGL LOG][Proc: 0]solve: 110.393 [ms]
[OGL LOG][Proc: 0]copy_x_back: 0.337 [ms]
[OGL LOG][lduLduBase.H:294] 
Statistics:
	Time per iteration: 407 [mu s]
	Time per residual norm calculation: 129.000000 [mu s]
	Time per iteration and DOF: 0.407000 [ns]
	Retrieve results bandwith 2.967000 [GByte/s]
nonehipGKOCG:  Solving for p, Initial residual = 0.00533353, Final residual = 8.04465e-05, No Iterations 271
linear solve p 150.024 [ms]
piso step 154.947 [ms]
 contErrors 
time step continuity errors : sum local = 2.15416e-09, global = -1.99433e-22, cumulative = -1.07028e-20
ExecutionTime = 11.67 s  ClockTime = 12 s

Time = 0.0016

Courant Number mean: 0.00817649 max: 0.091377
DILUPBiCGStab:  Solving for Ux, Initial residual = 0.0106403, Final residual = 4.81162e-08, No Iterations 5
DILUPBiCGStab:  Solving for Uy, Initial residual = 0.0144993, Final residual = 2.79038e-08, No Iterations 5
DILUPBiCGStab:  Solving for Uz, Initial residual = 0.0281303, Final residual = 5.90997e-08, No Iterations 5
linear solve U 102.726 [ms]
piso setup 13.242 [ms]
 correctNonOrthogonal 
 setRef 
 startSolve 
[OGL LOG][Proc: 0]global_index_init: 0.012 [ms]
[OGL LOG][Proc: 0]global_index_init: 0.002 [ms]
[OGL LOG][Proc: 0]update_host_matrix_data: 5.055 [ms]
[OGL LOG][Proc: 0]init_precond: 0.053 [ms]
frequency 101[OGL LOG][StoppingCriterion.H:589] Creating stopping criterion with minIter 162 frequency 10
[OGL LOG][Proc: 0]generate_solver: 0.004 [ms]
[OGL LOG][Proc: 0]solve: 109.868 [ms]
[OGL LOG][Proc: 0]copy_x_back: 0.34 [ms]
[OGL LOG][lduLduBase.H:294] 
Statistics:
	Time per iteration: 405 [mu s]
	Time per residual norm calculation: 130.000000 [mu s]
	Time per iteration and DOF: 0.405000 [ns]
	Retrieve results bandwith 2.941000 [GByte/s]
nonehipGKOCG:  Solving for p, Initial residual = 0.00592038, Final residual = 9.0932e-05, No Iterations 271
linear solve p 149.637 [ms]
piso step 154.359 [ms]
 contErrors 
time step continuity errors : sum local = 2.44282e-09, global = -6.48892e-22, cumulative = -1.13517e-20
piso setup 21.11 [ms]
 correctNonOrthogonal 
 setRef 
 startSolve 
[OGL LOG][Proc: 0]global_index_init: 0.044 [ms]
[OGL LOG][Proc: 0]global_index_init: 0.002 [ms]
[OGL LOG][Proc: 0]update_host_matrix_data: 5.094 [ms]
[OGL LOG][Proc: 0]init_precond: 0.061 [ms]
frequency 101[OGL LOG][StoppingCriterion.H:589] Creating stopping criterion with minIter 162 frequency 10
[OGL LOG][Proc: 0]generate_solver: 0.004 [ms]
[OGL LOG][Proc: 0]solve: 110.666 [ms]
[OGL LOG][Proc: 0]copy_x_back: 0.33 [ms]
[OGL LOG][lduLduBase.H:294] 
Statistics:
	Time per iteration: 408 [mu s]
	Time per residual norm calculation: 137.000000 [mu s]
	Time per iteration and DOF: 0.408000 [ns]
	Retrieve results bandwith 3.030000 [GByte/s]
nonehipGKOCG:  Solving for p, Initial residual = 0.00488487, Final residual = 7.00202e-05, No Iterations 271
linear solve p 153.25 [ms]
piso step 158.551 [ms]
 contErrors 
time step continuity errors : sum local = 1.90781e-09, global = 1.95215e-22, cumulative = -1.11565e-20
ExecutionTime = 12.13 s  ClockTime = 12 s

Time = 0.0017

Courant Number mean: 0.00838249 max: 0.0916252
DILUPBiCGStab:  Solving for Ux, Initial residual = 0.00993234, Final residual = 4.41299e-08, No Iterations 5
DILUPBiCGStab:  Solving for Uy, Initial residual = 0.0135176, Final residual = 2.58976e-08, No Iterations 5
DILUPBiCGStab:  Solving for Uz, Initial residual = 0.0263494, Final residual = 5.37941e-08, No Iterations 5
linear solve U 100.573 [ms]
piso setup 11.931 [ms]
 correctNonOrthogonal 
 setRef 
 startSolve 
[OGL LOG][Proc: 0]global_index_init: 0.034 [ms]
[OGL LOG][Proc: 0]global_index_init: 0.002 [ms]
[OGL LOG][Proc: 0]update_host_matrix_data: 5.048 [ms]
[OGL LOG][Proc: 0]init_precond: 0.053 [ms]
frequency 101[OGL LOG][StoppingCriterion.H:589] Creating stopping criterion with minIter 162 frequency 10
[OGL LOG][Proc: 0]generate_solver: 0.004 [ms]
[OGL LOG][Proc: 0]solve: 113.998 [ms]
[OGL LOG][Proc: 0]copy_x_back: 0.339 [ms]
[OGL LOG][lduLduBase.H:294] 
Statistics:
	Time per iteration: 420 [mu s]
	Time per residual norm calculation: 130.000000 [mu s]
	Time per iteration and DOF: 0.420000 [ns]
	Retrieve results bandwith 2.949000 [GByte/s]
nonehipGKOCG:  Solving for p, Initial residual = 0.00549694, Final residual = 9.24627e-05, No Iterations 271
linear solve p 150.49 [ms]
piso step 155.341 [ms]
 contErrors 
time step continuity errors : sum local = 2.48932e-09, global = -6.69179e-22, cumulative = -1.18257e-20
piso setup 15.263 [ms]
 correctNonOrthogonal 
 setRef 
 startSolve 
[OGL LOG][Proc: 0]global_index_init: 0.054 [ms]
[OGL LOG][Proc: 0]global_index_init: 0.002 [ms]
[OGL LOG][Proc: 0]update_host_matrix_data: 5.117 [ms]
[OGL LOG][Proc: 0]init_precond: 0.052 [ms]
frequency 101[OGL LOG][StoppingCriterion.H:589] Creating stopping criterion with minIter 162 frequency 10
[OGL LOG][Proc: 0]generate_solver: 0.004 [ms]
[OGL LOG][Proc: 0]solve: 110.475 [ms]
[OGL LOG][Proc: 0]copy_x_back: 0.343 [ms]
[OGL LOG][lduLduBase.H:294] 
Statistics:
	Time per iteration: 407 [mu s]
	Time per residual norm calculation: 128.000000 [mu s]
	Time per iteration and DOF: 0.407000 [ns]
	Retrieve results bandwith 2.915000 [GByte/s]
nonehipGKOCG:  Solving for p, Initial residual = 0.00454714, Final residual = 6.28917e-05, No Iterations 271
linear solve p 152.345 [ms]
piso step 157.657 [ms]
 contErrors 
time step continuity errors : sum local = 1.74116e-09, global = -1.97444e-21, cumulative = -1.38001e-20
ExecutionTime = 12.6 s  ClockTime = 13 s

Time = 0.0018

Courant Number mean: 0.00857956 max: 0.0918497
DILUPBiCGStab:  Solving for Ux, Initial residual = 0.00931086, Final residual = 4.06858e-08, No Iterations 5
DILUPBiCGStab:  Solving for Uy, Initial residual = 0.0126547, Final residual = 2.41713e-08, No Iterations 5
DILUPBiCGStab:  Solving for Uz, Initial residual = 0.0247695, Final residual = 4.95486e-08, No Iterations 5
linear solve U 101.476 [ms]
piso setup 12.122 [ms]
 correctNonOrthogonal 
 setRef 
 startSolve 
[OGL LOG][Proc: 0]global_index_init: 0.054 [ms]
[OGL LOG][Proc: 0]global_index_init: 0.002 [ms]
[OGL LOG][Proc: 0]update_host_matrix_data: 5.035 [ms]
[OGL LOG][Proc: 0]init_precond: 0.05 [ms]
frequency 101[OGL LOG][StoppingCriterion.H:589] Creating stopping criterion with minIter 162 frequency 10
[OGL LOG][Proc: 0]generate_solver: 0.004 [ms]
[OGL LOG][Proc: 0]solve: 110.388 [ms]
[OGL LOG][Proc: 0]copy_x_back: 0.343 [ms]
[OGL LOG][lduLduBase.H:294] 
Statistics:
	Time per iteration: 407 [mu s]
	Time per residual norm calculation: 133.000000 [mu s]
	Time per iteration and DOF: 0.407000 [ns]
	Retrieve results bandwith 2.915000 [GByte/s]
nonehipGKOCG:  Solving for p, Initial residual = 0.00504671, Final residual = 8.89035e-05, No Iterations 271
linear solve p 148.318 [ms]
piso step 153.151 [ms]
 contErrors 
time step continuity errors : sum local = 2.40882e-09, global = -1.73968e-21, cumulative = -1.55398e-20
piso setup 11.523 [ms]
 correctNonOrthogonal 
 setRef 
 startSolve 
[OGL LOG][Proc: 0]global_index_init: 0.019 [ms]
[OGL LOG][Proc: 0]global_index_init: 0.002 [ms]
[OGL LOG][Proc: 0]update_host_matrix_data: 5.156 [ms]
[OGL LOG][Proc: 0]init_precond: 0.052 [ms]
frequency 101[OGL LOG][StoppingCriterion.H:589] Creating stopping criterion with minIter 162 frequency 10
[OGL LOG][Proc: 0]generate_solver: 0.004 [ms]
[OGL LOG][Proc: 0]solve: 105.764 [ms]
[OGL LOG][Proc: 0]copy_x_back: 0.334 [ms]
[OGL LOG][lduLduBase.H:294] 
Statistics:
	Time per iteration: 405 [mu s]
	Time per residual norm calculation: 127.000000 [mu s]
	Time per iteration and DOF: 0.405000 [ns]
	Retrieve results bandwith 2.994000 [GByte/s]
nonehipGKOCG:  Solving for p, Initial residual = 0.0041833, Final residual = 9.35279e-05, No Iterations 261
linear solve p 143.148 [ms]
piso step 147.949 [ms]
 contErrors 
time step continuity errors : sum local = 2.50688e-09, global = -1.31365e-21, cumulative = -1.68534e-20
ExecutionTime = 13.05 s  ClockTime = 13 s

Time = 0.0019

Courant Number mean: 0.00876813 max: 0.092054
DILUPBiCGStab:  Solving for Ux, Initial residual = 0.00875808, Final residual = 3.7675e-08, No Iterations 5
DILUPBiCGStab:  Solving for Uy, Initial residual = 0.0118905, Final residual = 2.26811e-08, No Iterations 5
DILUPBiCGStab:  Solving for Uz, Initial residual = 0.0233587, Final residual = 4.61441e-08, No Iterations 5
linear solve U 100.651 [ms]
piso setup 11.918 [ms]
 correctNonOrthogonal 
 setRef 
 startSolve 
[OGL LOG][Proc: 0]global_index_init: 0.026 [ms]
[OGL LOG][Proc: 0]global_index_init: 0.002 [ms]
[OGL LOG][Proc: 0]update_host_matrix_data: 5.072 [ms]
[OGL LOG][Proc: 0]init_precond: 0.054 [ms]
frequency 101[OGL LOG][StoppingCriterion.H:589] Creating stopping criterion with minIter 156 frequency 10
[OGL LOG][Proc: 0]generate_solver: 0.004 [ms]
[OGL LOG][Proc: 0]solve: 115.181 [ms]
[OGL LOG][Proc: 0]copy_x_back: 0.345 [ms]
[OGL LOG][lduLduBase.H:294] 
Statistics:
	Time per iteration: 425 [mu s]
	Time per residual norm calculation: 125.000000 [mu s]
	Time per iteration and DOF: 0.425000 [ns]
	Retrieve results bandwith 2.898000 [GByte/s]
nonehipGKOCG:  Solving for p, Initial residual = 0.00469415, Final residual = 7.87288e-05, No Iterations 271
linear solve p 156.556 [ms]
piso step 161.369 [ms]
 contErrors 
time step continuity errors : sum local = 2.16408e-09, global = -1.85133e-21, cumulative = -1.87048e-20
piso setup 14.893 [ms]
 correctNonOrthogonal 
 setRef 
 startSolve 
[OGL LOG][Proc: 0]global_index_init: 0.04 [ms]
[OGL LOG][Proc: 0]global_index_init: 0.002 [ms]
[OGL LOG][Proc: 0]update_host_matrix_data: 5.109 [ms]
[OGL LOG][Proc: 0]init_precond: 0.053 [ms]
frequency 101[OGL LOG][StoppingCriterion.H:589] Creating stopping criterion with minIter 162 frequency 10
[OGL LOG][Proc: 0]generate_solver: 0.003 [ms]
[OGL LOG][Proc: 0]solve: 106.007 [ms]
[OGL LOG][Proc: 0]copy_x_back: 0.332 [ms]
[OGL LOG][lduLduBase.H:294] 
Statistics:
	Time per iteration: 406 [mu s]
	Time per residual norm calculation: 131.000000 [mu s]
	Time per iteration and DOF: 0.406000 [ns]
	Retrieve results bandwith 3.012000 [GByte/s]
nonehipGKOCG:  Solving for p, Initial residual = 0.0038668, Final residual = 8.75187e-05, No Iterations 261
linear solve p 146.218 [ms]
piso step 158.2 [ms]
 contErrors 
time step continuity errors : sum local = 2.3665e-09, global = 6.11514e-22, cumulative = -1.80932e-20
ExecutionTime = 13.53 s  ClockTime = 14 s

Time = 0.002

Courant Number mean: 0.00894849 max: 0.0922409
DILUPBiCGStab:  Solving for Ux, Initial residual = 0.00826091, Final residual = 3.50135e-08, No Iterations 5
DILUPBiCGStab:  Solving for Uy, Initial residual = 0.0112088, Final residual = 2.13814e-08, No Iterations 5
DILUPBiCGStab:  Solving for Uz, Initial residual = 0.0220929, Final residual = 4.32426e-08, No Iterations 5
linear solve U 102.534 [ms]
piso setup 11.997 [ms]
 correctNonOrthogonal 
 setRef 
 startSolve 
[OGL LOG][Proc: 0]global_index_init: 0.021 [ms]
[OGL LOG][Proc: 0]global_index_init: 0.002 [ms]
[OGL LOG][Proc: 0]update_host_matrix_data: 5.05 [ms]
[OGL LOG][Proc: 0]init_precond: 0.052 [ms]
frequency 101[OGL LOG][StoppingCriterion.H:589] Creating stopping criterion with minIter 156 frequency 10
[OGL LOG][Proc: 0]generate_solver: 0.004 [ms]
[OGL LOG][Proc: 0]solve: 109.196 [ms]
[OGL LOG][Proc: 0]copy_x_back: 0.338 [ms]
[OGL LOG][lduLduBase.H:294] 
Statistics:
	Time per iteration: 402 [mu s]
	Time per residual norm calculation: 134.000000 [mu s]
	Time per iteration and DOF: 0.402000 [ns]
	Retrieve results bandwith 2.958000 [GByte/s]
nonehipGKOCG:  Solving for p, Initial residual = 0.00433445, Final residual = 7.58545e-05, No Iterations 271
linear solve p 149.321 [ms]
piso step 155.145 [ms]
 contErrors 
time step continuity errors : sum local = 2.09877e-09, global = -8.52968e-22, cumulative = -1.89462e-20
piso setup 12.652 [ms]
 correctNonOrthogonal 
 setRef 
 startSolve 
[OGL LOG][Proc: 0]global_index_init: 0.052 [ms]
[OGL LOG][Proc: 0]global_index_init: 0.002 [ms]
[OGL LOG][Proc: 0]update_host_matrix_data: 5.113 [ms]
[OGL LOG][Proc: 0]init_precond: 0.051 [ms]
frequency 101[OGL LOG][StoppingCriterion.H:589] Creating stopping criterion with minIter 162 frequency 10
[OGL LOG][Proc: 0]generate_solver: 0.003 [ms]
[OGL LOG][Proc: 0]solve: 105.427 [ms]
[OGL LOG][Proc: 0]copy_x_back: 0.342 [ms]
[OGL LOG][lduLduBase.H:294] 
Statistics:
	Time per iteration: 403 [mu s]
	Time per residual norm calculation: 129.000000 [mu s]
	Time per iteration and DOF: 0.403000 [ns]
	Retrieve results bandwith 2.923000 [GByte/s]
nonehipGKOCG:  Solving for p, Initial residual = 0.00358812, Final residual = 8.30347e-05, No Iterations 261
linear solve p 145.767 [ms]
piso step 151.479 [ms]
 contErrors 
time step continuity errors : sum local = 2.26267e-09, global = -1.60754e-21, cumulative = -2.05538e-20
ExecutionTime = 13.98 s  ClockTime = 14 s

End

Finalising parallel run
frequency 101frequency 101frequency 101frequency 101frequency 101frequency 101frequency 101frequency 101frequency 101frequency 101frequency 101frequency 101frequency 101frequency 101frequency 101frequency 101frequency 101frequency 101frequency 101frequency 101frequency 101frequency 101frequency 101frequency 101frequency 101frequency 101frequency 101frequency 101frequency 101frequency 101frequency 101frequency 101frequency 101frequency 101frequency 101frequency 101frequency 101frequency 101frequency 101frequency 101frequency 101frequency 101frequency 101frequency 101frequency 101frequency 101frequency 101frequency 101frequency 101frequency 101frequency 101frequency 101frequency 101frequency 101frequency 101frequency 101frequency 101frequency 101frequency 101frequency 101frequency 101frequency 101frequency 101frequency 101frequency 101frequency 101frequency 101frequency 101frequency 101frequency 101frequency 101frequency 101frequency 101frequency 101frequency 101frequency 101frequency 101frequency 101frequency 101frequency 101frequency 101frequency 101frequency 101frequency 101frequency 101frequency 101frequency 101frequency 101frequency 101frequency 101frequency 101frequency 101frequency 101frequency 101frequency 101frequency 101frequency 101frequency 101frequency 101frequency 101frequency 101frequency 101frequency 101frequency 101frequency 101frequency 101frequency 101frequency 101frequency 101frequency 101frequency 101frequency 101frequency 101frequency 101frequency 101frequency 101frequency 101frequency 101frequency 101frequency 101frequency 101frequency 101frequency 101frequency 101frequency 101frequency 101frequency 101frequency 101frequency 101frequency 101frequency 101frequency 101frequency 101frequency 101frequency 101frequency 101frequency 101frequency 101frequency 101frequency 101frequency 101frequency 101frequency 101frequency 101frequency 101frequency 101frequency 101frequency 101frequency 101frequency 101frequency 101frequency 101frequency 101frequency 101frequency 101frequency 101frequency 101frequency 101frequency 101frequency 101frequency 101frequency 101frequency 101frequency 101frequency 101frequency 101frequency 101frequency 101frequency 101frequency 101frequency 101frequency 101frequency 101frequency 101frequency 101frequency 101frequency 101frequency 101frequency 101frequency 101frequency 101frequency 101frequency 101frequency 101frequency 101frequency 101frequency 101frequency 101frequency 101frequency 101frequency 101frequency 101frequency 101frequency 101frequency 101frequency 101frequency 101frequency 101frequency 101frequency 101frequency 101frequency 101frequency 101frequency 101frequency 101frequency 101frequency 101frequency 101frequency 101frequency 101frequency 101frequency 101frequency 101frequency 101frequency 101frequency 101frequency 101frequency 101frequency 101frequency 101frequency 101frequency 101frequency 101frequency 101frequency 101frequency 101frequency 101frequency 101frequency 101frequency 101frequency 101frequency 101frequency 101frequency 101frequency 101frequency 101frequency 101frequency 101frequency 101frequency 101frequency 101frequency 101frequency 101frequency 101frequency 101frequency 101frequency 101frequency 101frequency 101frequency 101frequency 101frequency 101frequency 101frequency 101frequency 101frequency 101frequency 101frequency 101frequency 101frequency 101frequency 101frequency 101frequency 101frequency 101frequency 101frequency 101frequency 101frequency 101frequency 101frequency 101frequency 101frequency 101frequency 101frequency 101frequency 101frequency 101frequency 101frequency 101frequency 101frequency 101================================================================================
hash: 950ebd94ac66fc7b19240277b9f0630d
/*---------------------------------------------------------------------------*\
| =========                 |                                                 |
| \\      /  F ield         | OpenFOAM: The Open Source CFD Toolbox           |
|  \\    /   O peration     | Version:  v2106                                 |
|   \\  /    A nd           | Website:  www.openfoam.com                      |
|    \\/     M anipulation  |                                                 |
\*---------------------------------------------------------------------------*/
Build  : f815a12bba-20210902 OPENFOAM=2106
Arch   : "LSB;label=32;scalar=64"
Exec   : icoFoam -parallel
Date   : Sep 27 2022
Time   : 06:40:51
Host   : nla-gpu2.ianm.kit.edu
PID    : 1007659
I/O    : uncollated
Case   : /home/greole/data/code/ogl_labbook/lidDrivenCavity/matrix_formats/mesh/100/matrix_solver/CG_NoPrecond_Ginkgo_HIP/mpiRank_gko/8/matrixFormat/Coo/base
nProcs : 8
Hosts  :
(
    (nla-gpu2.ianm.kit.edu 8)
)
Pstream initialized with:
    floatTransfer      : 0
    nProcsSimpleSum    : 0
    commsType          : nonBlocking
    polling iterations : 0
trapFpe: Floating point exception trapping enabled (FOAM_SIGFPE).
fileModificationChecking : Monitoring run-time modified files using timeStampMaster (fileModificationSkew 5, maxFileModificationPolls 20)
allowSystemOperations : Allowing user-supplied system call operations

// * * * * * * * * * * * * * * * * * * * * * * * * * * * * * * * * * * * * * //
Create time

Create mesh for time = 0


PISO: Operating solver in PISO mode

Reading transportProperties

Reading field p

Reading field U

Reading/calculating face flux field phi


Starting time loop

Time = 0.0001

Courant Number mean: 0 max: 0
DILUPBiCGStab:  Solving for Ux, Initial residual = 1, Final residual = 3.41774e-06, No Iterations 5
DILUPBiCGStab:  Solving for Uy:  solution singularity
DILUPBiCGStab:  Solving for Uz:  solution singularity
linear solve U 68.653 [ms]
piso setup 25.755 [ms]
 correctNonOrthogonal 
 setRef 
 startSolve 
[OGL LOG][lduLduBase.H:107] Initialising OGL
	Version:  cac8f54+
	Branch: repartition 
	Ginkgo version: 1.5.0(develop)
	MPI is GPU aware: 1
	Forces host buffer based communication: 1
	CPU ranks per GPU: 1
	Matrix format: Coo
[OGL LOG][Proc: 0]global_index_init: 1.725 [ms]
[OGL LOG][Proc: 0]global_index_init: 0.002 [ms]
[OGL LOG][Proc: 0]init_host_sparsity_pattern: 493.748 [ms]
[OGL LOG][Proc: 0]update_host_matrix_data: 10.631 [ms]
[OGL LOG][Proc: 0]init_precond: 0.097 [ms]
frequency 101[OGL LOG][StoppingCriterion.H:589] Creating stopping criterion with minIter 0 frequency 10
[OGL LOG][Proc: 0]generate_solver: 0.028 [ms]
[OGL LOG][Proc: 0]solve: 358.386 [ms]
[OGL LOG][Proc: 0]copy_x_back: 0.367 [ms]
[OGL LOG][lduLduBase.H:294] 
Statistics:
	Time per iteration: 447 [mu s]
	Time per residual norm calculation: 1222.000000 [mu s]
	Time per iteration and DOF: 0.447000 [ns]
	Retrieve results bandwith 2.724000 [GByte/s]
nonehipGKOCG:  Solving for p, Initial residual = 1, Final residual = 7.32926e-05, No Iterations 801
linear solve p 1729.46 [ms]
piso step 1739.09 [ms]
 contErrors 
time step continuity errors : sum local = 1.29488e-09, global = -2.19429e-22, cumulative = -2.19429e-22
piso setup 22.783 [ms]
 correctNonOrthogonal 
 setRef 
 startSolve 
[OGL LOG][Proc: 0]global_index_init: 0.031 [ms]
[OGL LOG][Proc: 0]global_index_init: 0.002 [ms]
[OGL LOG][Proc: 0]update_host_matrix_data: 5.11 [ms]
[OGL LOG][Proc: 0]init_precond: 0.055 [ms]
frequency 101[OGL LOG][StoppingCriterion.H:589] Creating stopping criterion with minIter 480 frequency 10
[OGL LOG][Proc: 0]generate_solver: 0.003 [ms]
[OGL LOG][Proc: 0]solve: 351.296 [ms]
[OGL LOG][Proc: 0]copy_x_back: 0.43 [ms]
[OGL LOG][lduLduBase.H:294] 
Statistics:
	Time per iteration: 449 [mu s]
	Time per residual norm calculation: 146.000000 [mu s]
	Time per iteration and DOF: 0.449000 [ns]
	Retrieve results bandwith 2.325000 [GByte/s]
nonehipGKOCG:  Solving for p, Initial residual = 0.559991, Final residual = 7.78069e-05, No Iterations 781
linear solve p 394.34 [ms]
piso step 404.248 [ms]
 contErrors 
time step continuity errors : sum local = 2.12825e-09, global = -5.33608e-22, cumulative = -7.53037e-22
ExecutionTime = 3.08 s  ClockTime = 3 s

Time = 0.0002

Courant Number mean: 0.00201333 max: 0.0540371
DILUPBiCGStab:  Solving for Ux, Initial residual = 0.216464, Final residual = 2.36891e-06, No Iterations 5
DILUPBiCGStab:  Solving for Uy, Initial residual = 0.309937, Final residual = 1.75831e-06, No Iterations 5
DILUPBiCGStab:  Solving for Uz, Initial residual = 0.981351, Final residual = 5.76078e-06, No Iterations 5
linear solve U 101.992 [ms]
piso setup 16.127 [ms]
 correctNonOrthogonal 
 setRef 
 startSolve 
[OGL LOG][Proc: 0]global_index_init: 0.026 [ms]
[OGL LOG][Proc: 0]global_index_init: 0.002 [ms]
[OGL LOG][Proc: 0]update_host_matrix_data: 7.457 [ms]
[OGL LOG][Proc: 0]init_precond: 0.051 [ms]
frequency 101[OGL LOG][StoppingCriterion.H:589] Creating stopping criterion with minIter 468 frequency 10
[OGL LOG][Proc: 0]generate_solver: 0.003 [ms]
[OGL LOG][Proc: 0]solve: 317.223 [ms]
[OGL LOG][Proc: 0]copy_x_back: 0.34 [ms]
[OGL LOG][lduLduBase.H:294] 
Statistics:
	Time per iteration: 411 [mu s]
	Time per residual norm calculation: 131.000000 [mu s]
	Time per iteration and DOF: 0.411000 [ns]
	Retrieve results bandwith 2.941000 [GByte/s]
nonehipGKOCG:  Solving for p, Initial residual = 0.381674, Final residual = 8.19824e-05, No Iterations 771
linear solve p 359.329 [ms]
piso step 365.112 [ms]
 contErrors 
time step continuity errors : sum local = 2.14404e-09, global = 1.91908e-22, cumulative = -5.61129e-22
piso setup 19.206 [ms]
 correctNonOrthogonal 
 setRef 
 startSolve 
[OGL LOG][Proc: 0]global_index_init: 0.008 [ms]
[OGL LOG][Proc: 0]global_index_init: 0.002 [ms]
[OGL LOG][Proc: 0]update_host_matrix_data: 6.699 [ms]
[OGL LOG][Proc: 0]init_precond: 0.052 [ms]
frequency 101[OGL LOG][StoppingCriterion.H:589] Creating stopping criterion with minIter 462 frequency 10
[OGL LOG][Proc: 0]generate_solver: 0.004 [ms]
[OGL LOG][Proc: 0]solve: 321.557 [ms]
[OGL LOG][Proc: 0]copy_x_back: 0.336 [ms]
[OGL LOG][lduLduBase.H:294] 
Statistics:
	Time per iteration: 417 [mu s]
	Time per residual norm calculation: 128.000000 [mu s]
	Time per iteration and DOF: 0.417000 [ns]
	Retrieve results bandwith 2.976000 [GByte/s]
nonehipGKOCG:  Solving for p, Initial residual = 0.284783, Final residual = 5.61129e-05, No Iterations 771
linear solve p 364.199 [ms]
piso step 370.263 [ms]
 contErrors 
time step continuity errors : sum local = 1.53758e-09, global = 5.83518e-23, cumulative = -5.02778e-22
ExecutionTime = 3.97 s  ClockTime = 4 s

Time = 0.0003

Courant Number mean: 0.00317979 max: 0.0721774
DILUPBiCGStab:  Solving for Ux, Initial residual = 0.0963257, Final residual = 9.73983e-07, No Iterations 5
DILUPBiCGStab:  Solving for Uy, Initial residual = 0.140691, Final residual = 5.64827e-07, No Iterations 5
DILUPBiCGStab:  Solving for Uz, Initial residual = 0.205591, Final residual = 1.2897e-06, No Iterations 5
linear solve U 105.787 [ms]
piso setup 16.468 [ms]
 correctNonOrthogonal 
 setRef 
 startSolve 
[OGL LOG][Proc: 0]global_index_init: 0.045 [ms]
[OGL LOG][Proc: 0]global_index_init: 0.002 [ms]
[OGL LOG][Proc: 0]update_host_matrix_data: 6.727 [ms]
[OGL LOG][Proc: 0]init_precond: 0.073 [ms]
frequency 101[OGL LOG][StoppingCriterion.H:589] Creating stopping criterion with minIter 462 frequency 10
[OGL LOG][Proc: 0]generate_solver: 0.004 [ms]
[OGL LOG][Proc: 0]solve: 323.333 [ms]
[OGL LOG][Proc: 0]copy_x_back: 0.438 [ms]
[OGL LOG][lduLduBase.H:294] 
Statistics:
	Time per iteration: 430 [mu s]
	Time per residual norm calculation: 136.000000 [mu s]
	Time per iteration and DOF: 0.430000 [ns]
	Retrieve results bandwith 2.283000 [GByte/s]
nonehipGKOCG:  Solving for p, Initial residual = 0.128559, Final residual = 9.39524e-05, No Iterations 751
linear solve p 377.66 [ms]
piso step 385.082 [ms]
 contErrors 
time step continuity errors : sum local = 2.2137e-09, global = -1.04122e-21, cumulative = -1.544e-21
piso setup 17.64 [ms]
 correctNonOrthogonal 
 setRef 
 startSolve 
[OGL LOG][Proc: 0]global_index_init: 0.039 [ms]
[OGL LOG][Proc: 0]global_index_init: 0.002 [ms]
[OGL LOG][Proc: 0]update_host_matrix_data: 7.468 [ms]
[OGL LOG][Proc: 0]init_precond: 0.059 [ms]
frequency 101[OGL LOG][StoppingCriterion.H:589] Creating stopping criterion with minIter 450 frequency 10
[OGL LOG][Proc: 0]generate_solver: 0.004 [ms]
[OGL LOG][Proc: 0]solve: 328.695 [ms]
[OGL LOG][Proc: 0]copy_x_back: 0.329 [ms]
[OGL LOG][lduLduBase.H:294] 
Statistics:
	Time per iteration: 443 [mu s]
	Time per residual norm calculation: 129.000000 [mu s]
	Time per iteration and DOF: 0.443000 [ns]
	Retrieve results bandwith 3.039000 [GByte/s]
nonehipGKOCG:  Solving for p, Initial residual = 0.0995964, Final residual = 8.06253e-05, No Iterations 741
linear solve p 370.347 [ms]
piso step 377.075 [ms]
 contErrors 
time step continuity errors : sum local = 1.92444e-09, global = -4.50546e-22, cumulative = -1.99455e-21
ExecutionTime = 4.89 s  ClockTime = 5 s

Time = 0.0004

Courant Number mean: 0.00397985 max: 0.0793326
DILUPBiCGStab:  Solving for Ux, Initial residual = 0.0593651, Final residual = 4.7211e-07, No Iterations 5
DILUPBiCGStab:  Solving for Uy, Initial residual = 0.0868086, Final residual = 2.90808e-07, No Iterations 5
DILUPBiCGStab:  Solving for Uz, Initial residual = 0.127077, Final residual = 6.27977e-07, No Iterations 5
linear solve U 102.316 [ms]
piso setup 17.07 [ms]
 correctNonOrthogonal 
 setRef 
 startSolve 
[OGL LOG][Proc: 0]global_index_init: 0.034 [ms]
[OGL LOG][Proc: 0]global_index_init: 0.002 [ms]
[OGL LOG][Proc: 0]update_host_matrix_data: 6.387 [ms]
[OGL LOG][Proc: 0]init_precond: 0.052 [ms]
frequency 101[OGL LOG][StoppingCriterion.H:589] Creating stopping criterion with minIter 444 frequency 10
[OGL LOG][Proc: 0]generate_solver: 0.003 [ms]
[OGL LOG][Proc: 0]solve: 304.394 [ms]
[OGL LOG][Proc: 0]copy_x_back: 0.336 [ms]
[OGL LOG][lduLduBase.H:294] 
Statistics:
	Time per iteration: 416 [mu s]
	Time per residual norm calculation: 129.000000 [mu s]
	Time per iteration and DOF: 0.416000 [ns]
	Retrieve results bandwith 2.976000 [GByte/s]
nonehipGKOCG:  Solving for p, Initial residual = 0.0642494, Final residual = 9.1304e-05, No Iterations 731
linear solve p 345.668 [ms]
piso step 352.063 [ms]
 contErrors 
time step continuity errors : sum local = 2.11675e-09, global = -1.00093e-21, cumulative = -2.99547e-21
piso setup 14.072 [ms]
 correctNonOrthogonal 
 setRef 
 startSolve 
[OGL LOG][Proc: 0]global_index_init: 0.055 [ms]
[OGL LOG][Proc: 0]global_index_init: 0.002 [ms]
[OGL LOG][Proc: 0]update_host_matrix_data: 6.959 [ms]
[OGL LOG][Proc: 0]init_precond: 0.05 [ms]
frequency 101[OGL LOG][StoppingCriterion.H:589] Creating stopping criterion with minIter 438 frequency 10
[OGL LOG][Proc: 0]generate_solver: 0.004 [ms]
[OGL LOG][Proc: 0]solve: 324.978 [ms]
[OGL LOG][Proc: 0]copy_x_back: 0.444 [ms]
[OGL LOG][lduLduBase.H:294] 
Statistics:
	Time per iteration: 450 [mu s]
	Time per residual norm calculation: 136.000000 [mu s]
	Time per iteration and DOF: 0.450000 [ns]
	Retrieve results bandwith 2.252000 [GByte/s]
nonehipGKOCG:  Solving for p, Initial residual = 0.049694, Final residual = 9.80314e-05, No Iterations 721
linear solve p 365.648 [ms]
piso step 378.595 [ms]
 contErrors 
time step continuity errors : sum local = 2.30803e-09, global = -7.58021e-23, cumulative = -3.07128e-21
ExecutionTime = 5.77 s  ClockTime = 5 s

Time = 0.0005

Courant Number mean: 0.0046013 max: 0.0828851
DILUPBiCGStab:  Solving for Ux, Initial residual = 0.0428599, Final residual = 3.10042e-07, No Iterations 5
DILUPBiCGStab:  Solving for Uy, Initial residual = 0.061865, Final residual = 1.66959e-07, No Iterations 5
DILUPBiCGStab:  Solving for Uz, Initial residual = 0.0970977, Final residual = 4.22274e-07, No Iterations 5
linear solve U 103.23 [ms]
piso setup 15.698 [ms]
 correctNonOrthogonal 
 setRef 
 startSolve 
[OGL LOG][Proc: 0]global_index_init: 0.021 [ms]
[OGL LOG][Proc: 0]global_index_init: 0.002 [ms]
[OGL LOG][Proc: 0]update_host_matrix_data: 7.125 [ms]
[OGL LOG][Proc: 0]init_precond: 0.053 [ms]
frequency 101[OGL LOG][StoppingCriterion.H:589] Creating stopping criterion with minIter 432 frequency 10
[OGL LOG][Proc: 0]generate_solver: 0.004 [ms]
[OGL LOG][Proc: 0]solve: 299.461 [ms]
[OGL LOG][Proc: 0]copy_x_back: 0.341 [ms]
[OGL LOG][lduLduBase.H:294] 
Statistics:
	Time per iteration: 415 [mu s]
	Time per residual norm calculation: 130.000000 [mu s]
	Time per iteration and DOF: 0.415000 [ns]
	Retrieve results bandwith 2.932000 [GByte/s]
nonehipGKOCG:  Solving for p, Initial residual = 0.0389435, Final residual = 7.72867e-05, No Iterations 721
linear solve p 338.969 [ms]
piso step 345.131 [ms]
 contErrors 
time step continuity errors : sum local = 1.81787e-09, global = 4.10223e-22, cumulative = -2.66105e-21
piso setup 13.905 [ms]
 correctNonOrthogonal 
 setRef 
 startSolve 
[OGL LOG][Proc: 0]global_index_init: 0.008 [ms]
[OGL LOG][Proc: 0]global_index_init: 0.002 [ms]
[OGL LOG][Proc: 0]update_host_matrix_data: 6.747 [ms]
[OGL LOG][Proc: 0]init_precond: 0.05 [ms]
frequency 101[OGL LOG][StoppingCriterion.H:589] Creating stopping criterion with minIter 432 frequency 10
[OGL LOG][Proc: 0]generate_solver: 0.004 [ms]
[OGL LOG][Proc: 0]solve: 295.977 [ms]
[OGL LOG][Proc: 0]copy_x_back: 0.339 [ms]
[OGL LOG][lduLduBase.H:294] 
Statistics:
	Time per iteration: 410 [mu s]
	Time per residual norm calculation: 132.000000 [mu s]
	Time per iteration and DOF: 0.410000 [ns]
	Retrieve results bandwith 2.949000 [GByte/s]
nonehipGKOCG:  Solving for p, Initial residual = 0.0305781, Final residual = 6.06762e-05, No Iterations 721
linear solve p 336.604 [ms]
piso step 341.871 [ms]
 contErrors 
time step continuity errors : sum local = 1.43737e-09, global = 3.64765e-22, cumulative = -2.29629e-21
ExecutionTime = 6.62 s  ClockTime = 6 s

Time = 0.0006

Courant Number mean: 0.00511864 max: 0.0850108
DILUPBiCGStab:  Solving for Ux, Initial residual = 0.0336738, Final residual = 2.21836e-07, No Iterations 5
DILUPBiCGStab:  Solving for Uy, Initial residual = 0.0480392, Final residual = 1.1549e-07, No Iterations 5
DILUPBiCGStab:  Solving for Uz, Initial residual = 0.0794544, Final residual = 3.32717e-07, No Iterations 5
linear solve U 103.817 [ms]
piso setup 15.066 [ms]
 correctNonOrthogonal 
 setRef 
 startSolve 
[OGL LOG][Proc: 0]global_index_init: 0.023 [ms]
[OGL LOG][Proc: 0]global_index_init: 0.002 [ms]
[OGL LOG][Proc: 0]update_host_matrix_data: 6.154 [ms]
[OGL LOG][Proc: 0]init_precond: 0.051 [ms]
frequency 101[OGL LOG][StoppingCriterion.H:589] Creating stopping criterion with minIter 432 frequency 10
[OGL LOG][Proc: 0]generate_solver: 0.004 [ms]
[OGL LOG][Proc: 0]solve: 296.356 [ms]
[OGL LOG][Proc: 0]copy_x_back: 0.334 [ms]
[OGL LOG][lduLduBase.H:294] 
Statistics:
	Time per iteration: 411 [mu s]
	Time per residual norm calculation: 130.000000 [mu s]
	Time per iteration and DOF: 0.411000 [ns]
	Retrieve results bandwith 2.994000 [GByte/s]
nonehipGKOCG:  Solving for p, Initial residual = 0.026822, Final residual = 5.76938e-05, No Iterations 721
linear solve p 336.263 [ms]
piso step 343.323 [ms]
 contErrors 
time step continuity errors : sum local = 1.36856e-09, global = -4.48032e-22, cumulative = -2.74432e-21
piso setup 13.988 [ms]
 correctNonOrthogonal 
 setRef 
 startSolve 
[OGL LOG][Proc: 0]global_index_init: 0.024 [ms]
[OGL LOG][Proc: 0]global_index_init: 0.002 [ms]
[OGL LOG][Proc: 0]update_host_matrix_data: 6.726 [ms]
[OGL LOG][Proc: 0]init_precond: 0.049 [ms]
frequency 101[OGL LOG][StoppingCriterion.H:589] Creating stopping criterion with minIter 432 frequency 10
[OGL LOG][Proc: 0]generate_solver: 0.004 [ms]
[OGL LOG][Proc: 0]solve: 318.245 [ms]
[OGL LOG][Proc: 0]copy_x_back: 0.54 [ms]
[OGL LOG][lduLduBase.H:294] 
Statistics:
	Time per iteration: 453 [mu s]
	Time per residual norm calculation: 136.000000 [mu s]
	Time per iteration and DOF: 0.453000 [ns]
	Retrieve results bandwith 1.851000 [GByte/s]
nonehipGKOCG:  Solving for p, Initial residual = 0.0212638, Final residual = 9.87911e-05, No Iterations 701
linear solve p 356.798 [ms]
piso step 363.916 [ms]
 contErrors 
time step continuity errors : sum local = 2.35615e-09, global = -1.4118e-21, cumulative = -4.15612e-21
ExecutionTime = 7.48 s  ClockTime = 7 s

Time = 0.0007

Courant Number mean: 0.00556497 max: 0.086455
DILUPBiCGStab:  Solving for Ux, Initial residual = 0.0277685, Final residual = 1.62598e-07, No Iterations 5
DILUPBiCGStab:  Solving for Uy, Initial residual = 0.0392331, Final residual = 8.88414e-08, No Iterations 5
DILUPBiCGStab:  Solving for Uz, Initial residual = 0.0673356, Final residual = 2.6896e-07, No Iterations 5
linear solve U 101.159 [ms]
piso setup 13.514 [ms]
 correctNonOrthogonal 
 setRef 
 startSolve 
[OGL LOG][Proc: 0]global_index_init: 0.033 [ms]
[OGL LOG][Proc: 0]global_index_init: 0.002 [ms]
[OGL LOG][Proc: 0]update_host_matrix_data: 7.299 [ms]
[OGL LOG][Proc: 0]init_precond: 0.052 [ms]
frequency 101[OGL LOG][StoppingCriterion.H:589] Creating stopping criterion with minIter 420 frequency 10
[OGL LOG][Proc: 0]generate_solver: 0.003 [ms]
[OGL LOG][Proc: 0]solve: 173.491 [ms]
[OGL LOG][Proc: 0]copy_x_back: 0.335 [ms]
[OGL LOG][lduLduBase.H:294] 
Statistics:
	Time per iteration: 412 [mu s]
	Time per residual norm calculation: 139.000000 [mu s]
	Time per iteration and DOF: 0.412000 [ns]
	Retrieve results bandwith 2.985000 [GByte/s]
nonehipGKOCG:  Solving for p, Initial residual = 0.0207598, Final residual = 7.89364e-05, No Iterations 421
linear solve p 212.985 [ms]
piso step 218.496 [ms]
 contErrors 
time step continuity errors : sum local = 2.05537e-09, global = 4.25254e-22, cumulative = -3.73087e-21
piso setup 15.983 [ms]
 correctNonOrthogonal 
 setRef 
 startSolve 
[OGL LOG][Proc: 0]global_index_init: 0.008 [ms]
[OGL LOG][Proc: 0]global_index_init: 0.002 [ms]
[OGL LOG][Proc: 0]update_host_matrix_data: 6.758 [ms]
[OGL LOG][Proc: 0]init_precond: 0.052 [ms]
frequency 101[OGL LOG][StoppingCriterion.H:589] Creating stopping criterion with minIter 252 frequency 10
[OGL LOG][Proc: 0]generate_solver: 0.005 [ms]
[OGL LOG][Proc: 0]solve: 126.195 [ms]
[OGL LOG][Proc: 0]copy_x_back: 0.329 [ms]
[OGL LOG][lduLduBase.H:294] 
Statistics:
	Time per iteration: 419 [mu s]
	Time per residual norm calculation: 135.000000 [mu s]
	Time per iteration and DOF: 0.419000 [ns]
	Retrieve results bandwith 3.039000 [GByte/s]
nonehipGKOCG:  Solving for p, Initial residual = 0.0165021, Final residual = 7.88776e-05, No Iterations 301
linear solve p 163.859 [ms]
piso step 169.859 [ms]
 contErrors 
time step continuity errors : sum local = 1.9566e-09, global = -6.3027e-22, cumulative = -4.36114e-21
ExecutionTime = 8.01 s  ClockTime = 8 s

Time = 0.0008

Courant Number mean: 0.0059623 max: 0.0875193
DILUPBiCGStab:  Solving for Ux, Initial residual = 0.0236242, Final residual = 1.30749e-07, No Iterations 5
DILUPBiCGStab:  Solving for Uy, Initial residual = 0.0331364, Final residual = 7.13817e-08, No Iterations 5
DILUPBiCGStab:  Solving for Uz, Initial residual = 0.0588444, Final residual = 2.20541e-07, No Iterations 5
linear solve U 108.046 [ms]
piso setup 16.77 [ms]
 correctNonOrthogonal 
 setRef 
 startSolve 
[OGL LOG][Proc: 0]global_index_init: 0.037 [ms]
[OGL LOG][Proc: 0]global_index_init: 0.002 [ms]
[OGL LOG][Proc: 0]update_host_matrix_data: 6.87 [ms]
[OGL LOG][Proc: 0]init_precond: 0.051 [ms]
frequency 101[OGL LOG][StoppingCriterion.H:589] Creating stopping criterion with minIter 180 frequency 10
[OGL LOG][Proc: 0]generate_solver: 0.003 [ms]
[OGL LOG][Proc: 0]solve: 142.06 [ms]
[OGL LOG][Proc: 0]copy_x_back: 0.341 [ms]
[OGL LOG][lduLduBase.H:294] 
Statistics:
	Time per iteration: 471 [mu s]
	Time per residual norm calculation: 129.000000 [mu s]
	Time per iteration and DOF: 0.471000 [ns]
	Retrieve results bandwith 2.932000 [GByte/s]
nonehipGKOCG:  Solving for p, Initial residual = 0.0166471, Final residual = 7.921e-05, No Iterations 301
linear solve p 180.553 [ms]
piso step 186.334 [ms]
 contErrors 
time step continuity errors : sum local = 2.04142e-09, global = -9.26194e-22, cumulative = -5.28733e-21
piso setup 16.541 [ms]
 correctNonOrthogonal 
 setRef 
 startSolve 
[OGL LOG][Proc: 0]global_index_init: 0.035 [ms]
[OGL LOG][Proc: 0]global_index_init: 0.002 [ms]
[OGL LOG][Proc: 0]update_host_matrix_data: 6.766 [ms]
[OGL LOG][Proc: 0]init_precond: 0.05 [ms]
frequency 101[OGL LOG][StoppingCriterion.H:589] Creating stopping criterion with minIter 180 frequency 10
[OGL LOG][Proc: 0]generate_solver: 0.004 [ms]
[OGL LOG][Proc: 0]solve: 123.643 [ms]
[OGL LOG][Proc: 0]copy_x_back: 0.334 [ms]
[OGL LOG][lduLduBase.H:294] 
Statistics:
	Time per iteration: 424 [mu s]
	Time per residual norm calculation: 131.000000 [mu s]
	Time per iteration and DOF: 0.424000 [ns]
	Retrieve results bandwith 2.994000 [GByte/s]
nonehipGKOCG:  Solving for p, Initial residual = 0.0133412, Final residual = 8.43828e-05, No Iterations 291
linear solve p 163.176 [ms]
piso step 168.7 [ms]
 contErrors 
time step continuity errors : sum local = 2.11492e-09, global = -7.37287e-22, cumulative = -6.02462e-21
ExecutionTime = 8.54 s  ClockTime = 8 s

Time = 0.0009

Courant Number mean: 0.00631847 max: 0.0883467
DILUPBiCGStab:  Solving for Ux, Initial residual = 0.0205606, Final residual = 1.09907e-07, No Iterations 5
DILUPBiCGStab:  Solving for Uy, Initial residual = 0.0286496, Final residual = 5.97128e-08, No Iterations 5
DILUPBiCGStab:  Solving for Uz, Initial residual = 0.0519918, Final residual = 1.80525e-07, No Iterations 5
linear solve U 103.095 [ms]
piso setup 14.606 [ms]
 correctNonOrthogonal 
 setRef 
 startSolve 
[OGL LOG][Proc: 0]global_index_init: 0.024 [ms]
[OGL LOG][Proc: 0]global_index_init: 0.002 [ms]
[OGL LOG][Proc: 0]update_host_matrix_data: 6.753 [ms]
[OGL LOG][Proc: 0]init_precond: 0.058 [ms]
frequency 101[OGL LOG][StoppingCriterion.H:589] Creating stopping criterion with minIter 174 frequency 10
[OGL LOG][Proc: 0]generate_solver: 0.004 [ms]
[OGL LOG][Proc: 0]solve: 123.414 [ms]
[OGL LOG][Proc: 0]copy_x_back: 0.335 [ms]
[OGL LOG][lduLduBase.H:294] 
Statistics:
	Time per iteration: 424 [mu s]
	Time per residual norm calculation: 130.000000 [mu s]
	Time per iteration and DOF: 0.424000 [ns]
	Retrieve results bandwith 2.985000 [GByte/s]
nonehipGKOCG:  Solving for p, Initial residual = 0.013841, Final residual = 8.98493e-05, No Iterations 291
linear solve p 161.426 [ms]
piso step 167.406 [ms]
 contErrors 
time step continuity errors : sum local = 2.33112e-09, global = -9.93728e-22, cumulative = -7.01835e-21
piso setup 14.166 [ms]
 correctNonOrthogonal 
 setRef 
 startSolve 
[OGL LOG][Proc: 0]global_index_init: 0.036 [ms]
[OGL LOG][Proc: 0]global_index_init: 0.003 [ms]
[OGL LOG][Proc: 0]update_host_matrix_data: 6.767 [ms]
[OGL LOG][Proc: 0]init_precond: 0.05 [ms]
frequency 101[OGL LOG][StoppingCriterion.H:589] Creating stopping criterion with minIter 174 frequency 10
[OGL LOG][Proc: 0]generate_solver: 0.004 [ms]
[OGL LOG][Proc: 0]solve: 123.431 [ms]
[OGL LOG][Proc: 0]copy_x_back: 0.333 [ms]
[OGL LOG][lduLduBase.H:294] 
Statistics:
	Time per iteration: 424 [mu s]
	Time per residual norm calculation: 136.000000 [mu s]
	Time per iteration and DOF: 0.424000 [ns]
	Retrieve results bandwith 3.003000 [GByte/s]
nonehipGKOCG:  Solving for p, Initial residual = 0.0111537, Final residual = 6.50367e-05, No Iterations 291
linear solve p 162.578 [ms]
piso step 167.506 [ms]
 contErrors 
time step continuity errors : sum local = 1.67827e-09, global = -1.25101e-22, cumulative = -7.14345e-21
ExecutionTime = 9.02 s  ClockTime = 9 s

Time = 0.001

Courant Number mean: 0.00664438 max: 0.0890141
DILUPBiCGStab:  Solving for Ux, Initial residual = 0.0181844, Final residual = 9.44108e-08, No Iterations 5
DILUPBiCGStab:  Solving for Uy, Initial residual = 0.0252124, Final residual = 5.13983e-08, No Iterations 5
DILUPBiCGStab:  Solving for Uz, Initial residual = 0.0465021, Final residual = 1.48245e-07, No Iterations 5
linear solve U 103.21 [ms]
piso setup 13.778 [ms]
 correctNonOrthogonal 
 setRef 
 startSolve 
[OGL LOG][Proc: 0]global_index_init: 0.015 [ms]
[OGL LOG][Proc: 0]global_index_init: 0.002 [ms]
[OGL LOG][Proc: 0]update_host_matrix_data: 6.743 [ms]
[OGL LOG][Proc: 0]init_precond: 0.052 [ms]
frequency 101[OGL LOG][StoppingCriterion.H:589] Creating stopping criterion with minIter 174 frequency 10
[OGL LOG][Proc: 0]generate_solver: 0.004 [ms]
[OGL LOG][Proc: 0]solve: 124.615 [ms]
[OGL LOG][Proc: 0]copy_x_back: 0.331 [ms]
[OGL LOG][lduLduBase.H:294] 
Statistics:
	Time per iteration: 428 [mu s]
	Time per residual norm calculation: 133.000000 [mu s]
	Time per iteration and DOF: 0.428000 [ns]
	Retrieve results bandwith 3.021000 [GByte/s]
nonehipGKOCG:  Solving for p, Initial residual = 0.0118228, Final residual = 7.79123e-05, No Iterations 291
linear solve p 165.77 [ms]
piso step 170.62 [ms]
 contErrors 
time step continuity errors : sum local = 2.05349e-09, global = -7.20257e-22, cumulative = -7.8637e-21
piso setup 15.874 [ms]
 correctNonOrthogonal 
 setRef 
 startSolve 
[OGL LOG][Proc: 0]global_index_init: 0.024 [ms]
[OGL LOG][Proc: 0]global_index_init: 0.002 [ms]
[OGL LOG][Proc: 0]update_host_matrix_data: 6.774 [ms]
[OGL LOG][Proc: 0]init_precond: 0.05 [ms]
frequency 101[OGL LOG][StoppingCriterion.H:589] Creating stopping criterion with minIter 174 frequency 10
[OGL LOG][Proc: 0]generate_solver: 0.003 [ms]
[OGL LOG][Proc: 0]solve: 125.312 [ms]
[OGL LOG][Proc: 0]copy_x_back: 0.342 [ms]
[OGL LOG][lduLduBase.H:294] 
Statistics:
	Time per iteration: 445 [mu s]
	Time per residual norm calculation: 133.000000 [mu s]
	Time per iteration and DOF: 0.445000 [ns]
	Retrieve results bandwith 2.923000 [GByte/s]
nonehipGKOCG:  Solving for p, Initial residual = 0.0095654, Final residual = 9.43309e-05, No Iterations 281
linear solve p 164.046 [ms]
[...]
linear solve p 3361.7 [ms]
piso step 3418.18 [ms]
 contErrors 
time step continuity errors : sum local = 3.63208e-10, global = -1.17156e-22, cumulative = -1.47397e-21
piso setup 145.352 [ms]
 correctNonOrthogonal 
 setRef 
 startSolve 
[OGL LOG][Proc: 0]global_index_init: 0.075 [ms]
[OGL LOG][Proc: 0]global_index_init: 0.005 [ms]
[OGL LOG][Proc: 0]update_host_matrix_data: 44.418 [ms]
[OGL_LOG] delta t build 11.435 [ms] delta t write 39.229 [ms] delta t repart 4.663 [ms] delta t gather 856.369 [ms]
[OGL LOG][Proc: 0]init_precond: 0.06 [ms]
[OGL LOG][StoppingCriterion.H:588] Creating stopping criterion with minIter 444 frequency 10
[OGL LOG][Proc: 0]generate_solver: 0.004 [ms]
[OGL LOG][Proc: 0]solve: 2122.39 [ms]
[OGL LOG][Proc: 0]copy_x_back: 18.633 [ms]
[OGL LOG][lduLduBase.H:294] 
Statistics:
	Time per iteration: 2903 [mu s]
	Time per residual norm calculation: 625.000000 [mu s]
	Time per iteration and DOF: 0.185792 [ns]
	Retrieve results bandwith 0.419000 [GByte/s]
nonehipGKOCG:  Solving for p, Initial residual = 0.01077, Final residual = 8.79245e-05, No Iterations 731
linear solve p 3345.77 [ms]
piso step 3401.7 [ms]
 contErrors 
time step continuity errors : sum local = 3.881e-10, global = -8.69656e-23, cumulative = -1.56093e-21
ExecutionTime = 167.05 s  ClockTime = 169 s

Time = 0.00056

Courant Number mean: 0.00539756 max: 0.0944662
DILUPBiCGStab:  Solving for Ux, Initial residual = 0.0118264, Final residual = 3.00055e-06, No Iterations 5
DILUPBiCGStab:  Solving for Uy, Initial residual = 0.0177763, Final residual = 2.85839e-06, No Iterations 5
DILUPBiCGStab:  Solving for Uz, Initial residual = 0.0332516, Final residual = 4.50962e-06, No Iterations 5
linear solve U 862.286 [ms]
piso setup 147.762 [ms]
 correctNonOrthogonal 
 setRef 
 startSolve 
[OGL LOG][Proc: 0]global_index_init: 0.318 [ms]
[OGL LOG][Proc: 0]global_index_init: 0.005 [ms]
[OGL LOG][Proc: 0]update_host_matrix_data: 44.478 [ms]
[OGL_LOG] delta t build 11.045 [ms] delta t write 39.68 [ms] delta t repart 6.917 [ms] delta t gather 914.911 [ms]
[OGL LOG][Proc: 0]init_precond: 0.081 [ms]
[OGL LOG][StoppingCriterion.H:588] Creating stopping criterion with minIter 438 frequency 10
[OGL LOG][Proc: 0]generate_solver: 0.006 [ms]
[OGL LOG][Proc: 0]solve: 2077.64 [ms]
[OGL LOG][Proc: 0]copy_x_back: 12.632 [ms]
[OGL LOG][lduLduBase.H:294] 
Statistics:
	Time per iteration: 2842 [mu s]
	Time per residual norm calculation: 484.000000 [mu s]
	Time per iteration and DOF: 0.181888 [ns]
	Retrieve results bandwith 0.618000 [GByte/s]
nonehipGKOCG:  Solving for p, Initial residual = 0.010463, Final residual = 9.0264e-05, No Iterations 731
linear solve p 3341.71 [ms]
piso step 3397.51 [ms]
 contErrors 
time step continuity errors : sum local = 3.99042e-10, global = 1.10928e-22, cumulative = -1.45001e-21
piso setup 150.68 [ms]
 correctNonOrthogonal 
 setRef 
 startSolve 
[OGL LOG][Proc: 0]global_index_init: 0.295 [ms]
[OGL LOG][Proc: 0]global_index_init: 0.006 [ms]
[OGL LOG][Proc: 0]update_host_matrix_data: 45.551 [ms]
[OGL_LOG] delta t build 11.285 [ms] delta t write 39.024 [ms] delta t repart 8.493 [ms] delta t gather 906.769 [ms]
[OGL LOG][Proc: 0]init_precond: 0.052 [ms]
[OGL LOG][StoppingCriterion.H:588] Creating stopping criterion with minIter 438 frequency 10
[OGL LOG][Proc: 0]generate_solver: 0.004 [ms]
[OGL LOG][Proc: 0]solve: 2094.87 [ms]
[OGL LOG][Proc: 0]copy_x_back: 12.728 [ms]
[OGL LOG][lduLduBase.H:294] 
Statistics:
	Time per iteration: 2865 [mu s]
	Time per residual norm calculation: 525.000000 [mu s]
	Time per iteration and DOF: 0.183360 [ns]
	Retrieve results bandwith 0.613000 [GByte/s]
nonehipGKOCG:  Solving for p, Initial residual = 0.00968177, Final residual = 7.77434e-05, No Iterations 731
linear solve p 3362.37 [ms]
piso step 3418.77 [ms]
 contErrors 
time step continuity errors : sum local = 3.438e-10, global = -5.99179e-23, cumulative = -1.50992e-21
ExecutionTime = 175.27 s  ClockTime = 178 s

Time = 0.0006

Courant Number mean: 0.00557138 max: 0.094662
DILUPBiCGStab:  Solving for Ux, Initial residual = 0.0110113, Final residual = 2.69827e-06, No Iterations 5
DILUPBiCGStab:  Solving for Uy, Initial residual = 0.0164449, Final residual = 2.58441e-06, No Iterations 5
DILUPBiCGStab:  Solving for Uz, Initial residual = 0.0310162, Final residual = 4.17663e-06, No Iterations 5
linear solve U 870.96 [ms]
piso setup 165.63 [ms]
 correctNonOrthogonal 
 setRef 
 startSolve 
[OGL LOG][Proc: 0]global_index_init: 0.554 [ms]
[OGL LOG][Proc: 0]global_index_init: 0.006 [ms]
[OGL LOG][Proc: 0]update_host_matrix_data: 46.187 [ms]
[OGL_LOG] delta t build 12.327 [ms] delta t write 39.305 [ms] delta t repart 13.251 [ms] delta t gather 888.436 [ms]
[OGL LOG][Proc: 0]init_precond: 0.095 [ms]
[OGL LOG][StoppingCriterion.H:588] Creating stopping criterion with minIter 438 frequency 10
[OGL LOG][Proc: 0]generate_solver: 0.007 [ms]
[OGL LOG][Proc: 0]solve: 2097.95 [ms]
[OGL LOG][Proc: 0]copy_x_back: 12.356 [ms]
[OGL LOG][lduLduBase.H:294] 
Statistics:
	Time per iteration: 2869 [mu s]
	Time per residual norm calculation: 499.000000 [mu s]
	Time per iteration and DOF: 0.183616 [ns]
	Retrieve results bandwith 0.632000 [GByte/s]
nonehipGKOCG:  Solving for p, Initial residual = 0.00953571, Final residual = 8.31578e-05, No Iterations 731
linear solve p 3354.83 [ms]
piso step 3418.04 [ms]
 contErrors 
time step continuity errors : sum local = 3.71457e-10, global = -1.70824e-22, cumulative = -1.68075e-21
piso setup 151.309 [ms]
 correctNonOrthogonal 
 setRef 
 startSolve 
[OGL LOG][Proc: 0]global_index_init: 0.565 [ms]
[OGL LOG][Proc: 0]global_index_init: 0.005 [ms]
[OGL LOG][Proc: 0]update_host_matrix_data: 47.516 [ms]
[OGL_LOG] delta t build 12.167 [ms] delta t write 40.26 [ms] delta t repart 5.456 [ms] delta t gather 878.271 [ms]
[OGL LOG][Proc: 0]init_precond: 0.03 [ms]
[OGL LOG][StoppingCriterion.H:588] Creating stopping criterion with minIter 438 frequency 10
[OGL LOG][Proc: 0]generate_solver: 0.002 [ms]
[OGL LOG][Proc: 0]solve: 2075.39 [ms]
[OGL LOG][Proc: 0]copy_x_back: 14.082 [ms]
[OGL LOG][lduLduBase.H:294] 
Statistics:
	Time per iteration: 2878 [mu s]
	Time per residual norm calculation: 500.000000 [mu s]
	Time per iteration and DOF: 0.184192 [ns]
	Retrieve results bandwith 0.554000 [GByte/s]
nonehipGKOCG:  Solving for p, Initial residual = 0.00883569, Final residual = 8.9889e-05, No Iterations 721
linear solve p 3302.76 [ms]
piso step 3365.49 [ms]
 contErrors 
time step continuity errors : sum local = 3.97905e-10, global = -1.70556e-22, cumulative = -1.8513e-21
ExecutionTime = 183.5 s  ClockTime = 186 s

Time = 0.00064

Courant Number mean: 0.00573663 max: 0.0948367
DILUPBiCGStab:  Solving for Ux, Initial residual = 0.0102997, Final residual = 2.44538e-06, No Iterations 5
DILUPBiCGStab:  Solving for Uy, Initial residual = 0.0152959, Final residual = 2.3621e-06, No Iterations 5
DILUPBiCGStab:  Solving for Uz, Initial residual = 0.0290192, Final residual = 3.90484e-06, No Iterations 5
linear solve U 932.779 [ms]
piso setup 145.066 [ms]
 correctNonOrthogonal 
 setRef 
 startSolve 
[OGL LOG][Proc: 0]global_index_init: 0.156 [ms]
[OGL LOG][Proc: 0]global_index_init: 0.005 [ms]
[OGL LOG][Proc: 0]update_host_matrix_data: 44.905 [ms]
[OGL_LOG] delta t build 12.665 [ms] delta t write 36.443 [ms] delta t repart 3.259 [ms] delta t gather 884.232 [ms]
[OGL LOG][Proc: 0]init_precond: 0.033 [ms]
[OGL LOG][StoppingCriterion.H:588] Creating stopping criterion with minIter 432 frequency 10
[OGL LOG][Proc: 0]generate_solver: 0.002 [ms]
[OGL LOG][Proc: 0]solve: 2063.78 [ms]
[OGL LOG][Proc: 0]copy_x_back: 13.655 [ms]
[OGL LOG][lduLduBase.H:294] 
Statistics:
	Time per iteration: 2862 [mu s]
	Time per residual norm calculation: 580.000000 [mu s]
	Time per iteration and DOF: 0.183168 [ns]
	Retrieve results bandwith 0.572000 [GByte/s]
nonehipGKOCG:  Solving for p, Initial residual = 0.00870519, Final residual = 9.52453e-05, No Iterations 721
linear solve p 3295.84 [ms]
piso step 3350.83 [ms]
 contErrors 
time step continuity errors : sum local = 4.21818e-10, global = 1.26419e-23, cumulative = -1.83866e-21
piso setup 148.919 [ms]
 correctNonOrthogonal 
 setRef 
 startSolve 
[OGL LOG][Proc: 0]global_index_init: 0.088 [ms]
[OGL LOG][Proc: 0]global_index_init: 0.005 [ms]
[OGL LOG][Proc: 0]update_host_matrix_data: 43.653 [ms]
[OGL_LOG] delta t build 10.906 [ms] delta t write 38.495 [ms] delta t repart 7.531 [ms] delta t gather 880.818 [ms]
[OGL LOG][Proc: 0]init_precond: 0.099 [ms]
[OGL LOG][StoppingCriterion.H:588] Creating stopping criterion with minIter 432 frequency 10
[OGL LOG][Proc: 0]generate_solver: 0.004 [ms]
[OGL LOG][Proc: 0]solve: 2054.72 [ms]
[OGL LOG][Proc: 0]copy_x_back: 13.072 [ms]
[OGL LOG][lduLduBase.H:294] 
Statistics:
	Time per iteration: 2849 [mu s]
	Time per residual norm calculation: 480.000000 [mu s]
	Time per iteration and DOF: 0.182336 [ns]
	Retrieve results bandwith 0.597000 [GByte/s]
nonehipGKOCG:  Solving for p, Initial residual = 0.00807945, Final residual = 8.23773e-05, No Iterations 721
linear solve p 3279.64 [ms]
piso step 3333.4 [ms]
 contErrors 
time step continuity errors : sum local = 3.65185e-10, global = -1.82034e-22, cumulative = -2.0207e-21
ExecutionTime = 191.63 s  ClockTime = 194 s

Time = 0.00068

Courant Number mean: 0.00589477 max: 0.0949938
DILUPBiCGStab:  Solving for Ux, Initial residual = 0.00967383, Final residual = 2.23152e-06, No Iterations 5
DILUPBiCGStab:  Solving for Uy, Initial residual = 0.0142925, Final residual = 2.17627e-06, No Iterations 5
DILUPBiCGStab:  Solving for Uz, Initial residual = 0.027294, Final residual = 3.75079e-06, No Iterations 5
linear solve U 898.483 [ms]
piso setup 144.796 [ms]
 correctNonOrthogonal 
 setRef 
 startSolve 
[OGL LOG][Proc: 0]global_index_init: 0.073 [ms]
[OGL LOG][Proc: 0]global_index_init: 0.005 [ms]
[OGL LOG][Proc: 0]update_host_matrix_data: 43.513 [ms]
[OGL_LOG] delta t build 12.021 [ms] delta t write 38.548 [ms] delta t repart 9.267 [ms] delta t gather 864.944 [ms]
[OGL LOG][Proc: 0]init_precond: 0.071 [ms]
[OGL LOG][StoppingCriterion.H:588] Creating stopping criterion with minIter 432 frequency 10
[OGL LOG][Proc: 0]generate_solver: 0.004 [ms]
[OGL LOG][Proc: 0]solve: 2050.44 [ms]
[OGL LOG][Proc: 0]copy_x_back: 12.619 [ms]
[OGL LOG][lduLduBase.H:294] 
Statistics:
	Time per iteration: 2843 [mu s]
	Time per residual norm calculation: 493.000000 [mu s]
	Time per iteration and DOF: 0.181952 [ns]
	Retrieve results bandwith 0.619000 [GByte/s]
nonehipGKOCG:  Solving for p, Initial residual = 0.00809628, Final residual = 9.21217e-05, No Iterations 721
linear solve p 3264.86 [ms]
piso step 3321.81 [ms]
 contErrors 
time step continuity errors : sum local = 4.11049e-10, global = -6.46069e-23, cumulative = -2.0853e-21
piso setup 146.333 [ms]
 correctNonOrthogonal 
 setRef 
 startSolve 
[OGL LOG][Proc: 0]global_index_init: 0.036 [ms]
[OGL LOG][Proc: 0]global_index_init: 0.005 [ms]
[OGL LOG][Proc: 0]update_host_matrix_data: 44.177 [ms]
[OGL_LOG] delta t build 11.164 [ms] delta t write 38.958 [ms] delta t repart 5.605 [ms] delta t gather 879.382 [ms]
[OGL LOG][Proc: 0]init_precond: 0.055 [ms]
[OGL LOG][StoppingCriterion.H:588] Creating stopping criterion with minIter 432 frequency 10
[OGL LOG][Proc: 0]generate_solver: 0.005 [ms]
[OGL LOG][Proc: 0]solve: 2053.31 [ms]
[OGL LOG][Proc: 0]copy_x_back: 15.763 [ms]
[OGL LOG][lduLduBase.H:294] 
Statistics:
	Time per iteration: 2887 [mu s]
	Time per residual norm calculation: 722.000000 [mu s]
	Time per iteration and DOF: 0.184768 [ns]
	Retrieve results bandwith 0.495000 [GByte/s]
nonehipGKOCG:  Solving for p, Initial residual = 0.00752005, Final residual = 9.828e-05, No Iterations 711
linear solve p 3302.45 [ms]
piso step 3358.67 [ms]
 contErrors 
time step continuity errors : sum local = 4.35527e-10, global = 2.78067e-23, cumulative = -2.0575e-21
ExecutionTime = 199.73 s  ClockTime = 202 s

Time = 0.00072

Courant Number mean: 0.00604602 max: 0.095136
DILUPBiCGStab:  Solving for Ux, Initial residual = 0.00911897, Final residual = 2.04908e-06, No Iterations 5
DILUPBiCGStab:  Solving for Uy, Initial residual = 0.0134104, Final residual = 2.01952e-06, No Iterations 5
DILUPBiCGStab:  Solving for Uz, Initial residual = 0.0257334, Final residual = 3.58456e-06, No Iterations 5
linear solve U 874.04 [ms]
piso setup 146.852 [ms]
 correctNonOrthogonal 
 setRef 
 startSolve 
[OGL LOG][Proc: 0]global_index_init: 0.033 [ms]
[OGL LOG][Proc: 0]global_index_init: 0.006 [ms]
[OGL LOG][Proc: 0]update_host_matrix_data: 43.8 [ms]
[OGL_LOG] delta t build 11.215 [ms] delta t write 38.876 [ms] delta t repart 13.629 [ms] delta t gather 867.243 [ms]
[OGL LOG][Proc: 0]init_precond: 0.074 [ms]
[OGL LOG][StoppingCriterion.H:588] Creating stopping criterion with minIter 426 frequency 10
[OGL LOG][Proc: 0]generate_solver: 0.007 [ms]
[OGL LOG][Proc: 0]solve: 2170.4 [ms]
[OGL LOG][Proc: 0]copy_x_back: 17.413 [ms]
[OGL LOG][lduLduBase.H:294] 
Statistics:
	Time per iteration: 3010 [mu s]
	Time per residual norm calculation: 585.000000 [mu s]
	Time per iteration and DOF: 0.192640 [ns]
	Retrieve results bandwith 0.448000 [GByte/s]
nonehipGKOCG:  Solving for p, Initial residual = 0.00747057, Final residual = 9.44254e-05, No Iterations 721
linear solve p 3392.58 [ms]
piso step 3446.11 [ms]
 contErrors 
time step continuity errors : sum local = 4.19186e-10, global = 7.68978e-23, cumulative = -1.9806e-21
piso setup 152.178 [ms]
 correctNonOrthogonal 
 setRef 
 startSolve 
[OGL LOG][Proc: 0]global_index_init: 4.449 [ms]
[OGL LOG][Proc: 0]global_index_init: 0.005 [ms]
[OGL LOG][Proc: 0]update_host_matrix_data: 44.933 [ms]
[OGL_LOG] delta t build 11.928 [ms] delta t write 35.945 [ms] delta t repart 8.02 [ms] delta t gather 891.378 [ms]
[OGL LOG][Proc: 0]init_precond: 0.068 [ms]
[OGL LOG][StoppingCriterion.H:588] Creating stopping criterion with minIter 432 frequency 10
[OGL LOG][Proc: 0]generate_solver: 0.007 [ms]
[OGL LOG][Proc: 0]solve: 2092.92 [ms]
[OGL LOG][Proc: 0]copy_x_back: 13.247 [ms]
[OGL LOG][lduLduBase.H:294] 
Statistics:
	Time per iteration: 2902 [mu s]
	Time per residual norm calculation: 491.000000 [mu s]
	Time per iteration and DOF: 0.185728 [ns]
	Retrieve results bandwith 0.589000 [GByte/s]
nonehipGKOCG:  Solving for p, Initial residual = 0.00692025, Final residual = 8.24489e-05, No Iterations 721
linear solve p 3338.21 [ms]
piso step 3393.49 [ms]
 contErrors 
time step continuity errors : sum local = 3.66567e-10, global = 1.9799e-22, cumulative = -1.78261e-21
ExecutionTime = 207.98 s  ClockTime = 211 s

Time = 0.00076

Courant Number mean: 0.0061912 max: 0.0952656
DILUPBiCGStab:  Solving for Ux, Initial residual = 0.008623, Final residual = 1.89238e-06, No Iterations 5
DILUPBiCGStab:  Solving for Uy, Initial residual = 0.0126275, Final residual = 1.885e-06, No Iterations 5
DILUPBiCGStab:  Solving for Uz, Initial residual = 0.0243663, Final residual = 3.47043e-06, No Iterations 5
linear solve U 864.849 [ms]
piso setup 145.635 [ms]
 correctNonOrthogonal 
 setRef 
 startSolve 
[OGL LOG][Proc: 0]global_index_init: 0.254 [ms]
[OGL LOG][Proc: 0]global_index_init: 0.005 [ms]
[OGL LOG][Proc: 0]update_host_matrix_data: 44.94 [ms]
[OGL_LOG] delta t build 12.346 [ms] delta t write 37.42 [ms] delta t repart 3.487 [ms] delta t gather 883.263 [ms]
[OGL LOG][Proc: 0]init_precond: 0.065 [ms]
[OGL LOG][StoppingCriterion.H:588] Creating stopping criterion with minIter 432 frequency 10
[OGL LOG][Proc: 0]generate_solver: 0.003 [ms]
[OGL LOG][Proc: 0]solve: 2055.85 [ms]
[OGL LOG][Proc: 0]copy_x_back: 12.251 [ms]
[OGL LOG][lduLduBase.H:294] 
Statistics:
	Time per iteration: 2851 [mu s]
	Time per residual norm calculation: 453.000000 [mu s]
	Time per iteration and DOF: 0.182464 [ns]
	Retrieve results bandwith 0.637000 [GByte/s]
nonehipGKOCG:  Solving for p, Initial residual = 0.00703677, Final residual = 9.44835e-05, No Iterations 721
linear solve p 3282.16 [ms]
piso step 3335.18 [ms]
 contErrors 
time step continuity errors : sum local = 4.22095e-10, global = -2.71291e-22, cumulative = -2.0539e-21
piso setup 143.002 [ms]
 correctNonOrthogonal 
 setRef 
 startSolve 
[OGL LOG][Proc: 0]global_index_init: 0.034 [ms]
[OGL LOG][Proc: 0]global_index_init: 0.005 [ms]
[OGL LOG][Proc: 0]update_host_matrix_data: 39.425 [ms]
[OGL_LOG] delta t build 11.781 [ms] delta t write 33.887 [ms] delta t repart 14.371 [ms] delta t gather 882.492 [ms]
[OGL LOG][Proc: 0]init_precond: 0.046 [ms]
[OGL LOG][StoppingCriterion.H:588] Creating stopping criterion with minIter 432 frequency 10
[OGL LOG][Proc: 0]generate_solver: 0.003 [ms]
[OGL LOG][Proc: 0]solve: 2029.76 [ms]
[OGL LOG][Proc: 0]copy_x_back: 15.78 [ms]
[OGL LOG][lduLduBase.H:294] 
Statistics:
	Time per iteration: 2854 [mu s]
	Time per residual norm calculation: 485.000000 [mu s]
	Time per iteration and DOF: 0.182656 [ns]
	Retrieve results bandwith 0.495000 [GByte/s]
nonehipGKOCG:  Solving for p, Initial residual = 0.00653446, Final residual = 9.3737e-05, No Iterations 711
linear solve p 3277.04 [ms]
piso step 3327.4 [ms]
 contErrors 
time step continuity errors : sum local = 4.16838e-10, global = 2.36709e-22, cumulative = -1.81719e-21
ExecutionTime = 216.04 s  ClockTime = 219 s

Time = 0.0008

Courant Number mean: 0.00633099 max: 0.0953844
DILUPBiCGStab:  Solving for Ux, Initial residual = 0.00817756, Final residual = 1.75687e-06, No Iterations 5
DILUPBiCGStab:  Solving for Uy, Initial residual = 0.0119291, Final residual = 1.76863e-06, No Iterations 5
DILUPBiCGStab:  Solving for Uz, Initial residual = 0.0231127, Final residual = 3.34318e-06, No Iterations 5
linear solve U 902.126 [ms]
piso setup 146.216 [ms]
 correctNonOrthogonal 
 setRef 
 startSolve 
[OGL LOG][Proc: 0]global_index_init: 0.03 [ms]
[OGL LOG][Proc: 0]global_index_init: 0.005 [ms]
[OGL LOG][Proc: 0]update_host_matrix_data: 39.698 [ms]
[OGL_LOG] delta t build 10.802 [ms] delta t write 31.066 [ms] delta t repart 8.107 [ms] delta t gather 870.756 [ms]
[OGL LOG][Proc: 0]init_precond: 0.068 [ms]
[OGL LOG][StoppingCriterion.H:588] Creating stopping criterion with minIter 426 frequency 10
[OGL LOG][Proc: 0]generate_solver: 0.005 [ms]
[OGL LOG][Proc: 0]solve: 2097.72 [ms]
[OGL LOG][Proc: 0]copy_x_back: 12.913 [ms]
[OGL LOG][lduLduBase.H:294] 
Statistics:
	Time per iteration: 2869 [mu s]
	Time per residual norm calculation: 496.000000 [mu s]
	Time per iteration and DOF: 0.183616 [ns]
	Retrieve results bandwith 0.604000 [GByte/s]
nonehipGKOCG:  Solving for p, Initial residual = 0.00650026, Final residual = 9.2845e-05, No Iterations 731
linear solve p 3324.16 [ms]
piso step 3379.08 [ms]
 contErrors 
time step continuity errors : sum local = 4.12988e-10, global = -5.4202e-23, cumulative = -1.87139e-21
piso setup 148.488 [ms]
 correctNonOrthogonal 
 setRef 
 startSolve 
[OGL LOG][Proc: 0]global_index_init: 0.059 [ms]
[OGL LOG][Proc: 0]global_index_init: 0.005 [ms]
[OGL LOG][Proc: 0]update_host_matrix_data: 40.252 [ms]
[OGL_LOG] delta t build 11.568 [ms] delta t write 33.563 [ms] delta t repart 10.455 [ms] delta t gather 868.845 [ms]
[OGL LOG][Proc: 0]init_precond: 0.048 [ms]
[OGL LOG][StoppingCriterion.H:588] Creating stopping criterion with minIter 438 frequency 10
[OGL LOG][Proc: 0]generate_solver: 0.002 [ms]
[OGL LOG][Proc: 0]solve: 2126.64 [ms]
[OGL LOG][Proc: 0]copy_x_back: 12.236 [ms]
[OGL LOG][lduLduBase.H:294] 
Statistics:
	Time per iteration: 2991 [mu s]
	Time per residual norm calculation: 453.000000 [mu s]
	Time per iteration and DOF: 0.191424 [ns]
	Retrieve results bandwith 0.638000 [GByte/s]
nonehipGKOCG:  Solving for p, Initial residual = 0.0060059, Final residual = 9.91884e-05, No Iterations 711
linear solve p 3353.04 [ms]
piso step 3408.86 [ms]
 contErrors 
time step continuity errors : sum local = 4.40314e-10, global = -1.44945e-22, cumulative = -2.01634e-21
ExecutionTime = 224.27 s  ClockTime = 227 s

End

Finalising parallel run
================================================================================
