hash: 66d3c95fbbc20fe6f4fca0ee43ddd85f
/*---------------------------------------------------------------------------*\
| =========                 |                                                 |
| \\      /  F ield         | OpenFOAM: The Open Source CFD Toolbox           |
|  \\    /   O peration     | Version:  v2106                                 |
|   \\  /    A nd           | Website:  www.openfoam.com                      |
|    \\/     M anipulation  |                                                 |
\*---------------------------------------------------------------------------*/
Build  : f815a12bba-20210902 OPENFOAM=2106
Arch   : "LSB;label=32;scalar=64"
Exec   : icoFoam -parallel
Date   : Sep 28 2022
Time   : 14:34:01
Host   : nla-gpu2.ianm.kit.edu
PID    : 1065130
I/O    : uncollated
Case   : /home/greole/data/code/ogl_labbook/lidDrivenCavity/single_node/mesh/100/matrix_solver/CG_NoPrecond_OpenFOAM_Default/mpiRank_of/32/base
nProcs : 32
Hosts  :
(
    (nla-gpu2.ianm.kit.edu 32)
)
Pstream initialized with:
    floatTransfer      : 0
    nProcsSimpleSum    : 0
    commsType          : nonBlocking
    polling iterations : 0
trapFpe: Floating point exception trapping enabled (FOAM_SIGFPE).
fileModificationChecking : Monitoring run-time modified files using timeStampMaster (fileModificationSkew 5, maxFileModificationPolls 20)
allowSystemOperations : Allowing user-supplied system call operations

// * * * * * * * * * * * * * * * * * * * * * * * * * * * * * * * * * * * * * //
Create time

Create mesh for time = 0


PISO: Operating solver in PISO mode

Reading transportProperties

Reading field p

Reading field U

Reading/calculating face flux field phi


Starting time loop

Time = 0.0001

Courant Number mean: 0 max: 0
DILUPBiCGStab:  Solving for Ux, Initial residual = 1, Final residual = 5.11961e-06, No Iterations 5
DILUPBiCGStab:  Solving for Uy:  solution singularity
DILUPBiCGStab:  Solving for Uz:  solution singularity
linear solve U 55.187 [ms]
piso setup 56.977 [ms]
 correctNonOrthogonal 
 setRef 
 startSolve 
nonePCG:  Solving for p, Initial residual = 1, Final residual = 9.68454e-05, No Iterations 794
linear solve p 447.98 [ms]
piso step 467.141 [ms]
 contErrors 
time step continuity errors : sum local = 1.71101e-09, global = -4.04264e-22, cumulative = -4.04264e-22
piso setup 47.992 [ms]
 correctNonOrthogonal 
 setRef 
 startSolve 
nonePCG:  Solving for p, Initial residual = 0.559986, Final residual = 9.74524e-05, No Iterations 777
linear solve p 342.278 [ms]
piso step 355.206 [ms]
 contErrors 
time step continuity errors : sum local = 2.6657e-09, global = -9.622e-22, cumulative = -1.36646e-21
ExecutionTime = 1.39 s  ClockTime = 2 s

Time = 0.0002

Courant Number mean: 0.00201332 max: 0.0540371
DILUPBiCGStab:  Solving for Ux, Initial residual = 0.216464, Final residual = 4.03946e-06, No Iterations 5
DILUPBiCGStab:  Solving for Uy, Initial residual = 0.309938, Final residual = 3.41666e-06, No Iterations 5
DILUPBiCGStab:  Solving for Uz, Initial residual = 0.98131, Final residual = 9.74794e-06, No Iterations 5
linear solve U 33.323 [ms]
piso setup 25.732 [ms]
 correctNonOrthogonal 
 setRef 
 startSolve 
nonePCG:  Solving for p, Initial residual = 0.381697, Final residual = 9.12585e-05, No Iterations 769
linear solve p 334.884 [ms]
piso step 346.819 [ms]
 contErrors 
time step continuity errors : sum local = 2.38674e-09, global = -1.18964e-21, cumulative = -2.5561e-21
piso setup 11.791 [ms]
 correctNonOrthogonal 
 setRef 
 startSolve 
nonePCG:  Solving for p, Initial residual = 0.284805, Final residual = 9.60281e-05, No Iterations 764
linear solve p 383.976 [ms]
piso step 392.904 [ms]
 contErrors 
time step continuity errors : sum local = 2.6314e-09, global = -5.95829e-24, cumulative = -2.56206e-21
ExecutionTime = 2.25 s  ClockTime = 3 s

Time = 0.0003

Courant Number mean: 0.00317979 max: 0.0721774
DILUPBiCGStab:  Solving for Ux, Initial residual = 0.0963257, Final residual = 1.67916e-06, No Iterations 5
DILUPBiCGStab:  Solving for Uy, Initial residual = 0.140691, Final residual = 1.46743e-06, No Iterations 5
DILUPBiCGStab:  Solving for Uz, Initial residual = 0.205664, Final residual = 2.19577e-06, No Iterations 5
linear solve U 38.79 [ms]
piso setup 16.927 [ms]
 correctNonOrthogonal 
 setRef 
 startSolve 
nonePCG:  Solving for p, Initial residual = 0.128588, Final residual = 9.75396e-05, No Iterations 743
linear solve p 339.555 [ms]
piso step 346.807 [ms]
 contErrors 
time step continuity errors : sum local = 2.29836e-09, global = -1.01261e-21, cumulative = -3.57467e-21
piso setup 10.527 [ms]
 correctNonOrthogonal 
 setRef 
 startSolve 
nonePCG:  Solving for p, Initial residual = 0.0996221, Final residual = 9.90771e-05, No Iterations 736
linear solve p 334.283 [ms]
piso step 343.48 [ms]
 contErrors 
time step continuity errors : sum local = 2.36494e-09, global = -8.14854e-22, cumulative = -4.38952e-21
ExecutionTime = 3.01 s  ClockTime = 4 s

Time = 0.0004

Courant Number mean: 0.00397984 max: 0.0793325
DILUPBiCGStab:  Solving for Ux, Initial residual = 0.0593651, Final residual = 8.48476e-07, No Iterations 5
DILUPBiCGStab:  Solving for Uy, Initial residual = 0.0868086, Final residual = 7.57959e-07, No Iterations 5
DILUPBiCGStab:  Solving for Uz, Initial residual = 0.127078, Final residual = 9.71771e-07, No Iterations 5
linear solve U 39.621 [ms]
piso setup 12.749 [ms]
 correctNonOrthogonal 
 setRef 
 startSolve 
nonePCG:  Solving for p, Initial residual = 0.0642989, Final residual = 9.674e-05, No Iterations 729
linear solve p 374.369 [ms]
piso step 380.792 [ms]
 contErrors 
time step continuity errors : sum local = 2.24289e-09, global = -9.74067e-22, cumulative = -5.36359e-21
piso setup 9.327 [ms]
 correctNonOrthogonal 
 setRef 
 startSolve 
nonePCG:  Solving for p, Initial residual = 0.0497322, Final residual = 9.98275e-05, No Iterations 719
linear solve p 319.734 [ms]
piso step 325.224 [ms]
 contErrors 
time step continuity errors : sum local = 2.35041e-09, global = -1.48229e-21, cumulative = -6.84588e-21
ExecutionTime = 3.8 s  ClockTime = 4 s

Time = 0.0005

Courant Number mean: 0.00460129 max: 0.082885
DILUPBiCGStab:  Solving for Ux, Initial residual = 0.0428599, Final residual = 5.81762e-07, No Iterations 5
DILUPBiCGStab:  Solving for Uy, Initial residual = 0.0618649, Final residual = 4.25782e-07, No Iterations 5
DILUPBiCGStab:  Solving for Uz, Initial residual = 0.0971404, Final residual = 6.06993e-07, No Iterations 5
linear solve U 32.396 [ms]
piso setup 10.281 [ms]
 correctNonOrthogonal 
 setRef 
 startSolve 
nonePCG:  Solving for p, Initial residual = 0.0389514, Final residual = 9.92428e-05, No Iterations 402
linear solve p 183.042 [ms]
piso step 190.457 [ms]
 contErrors 
time step continuity errors : sum local = 2.67138e-09, global = -1.26025e-21, cumulative = -8.10613e-21
piso setup 11.194 [ms]
 correctNonOrthogonal 
 setRef 
 startSolve 
nonePCG:  Solving for p, Initial residual = 0.0305797, Final residual = 9.88103e-05, No Iterations 339
linear solve p 153.079 [ms]
piso step 158.455 [ms]
 contErrors 
time step continuity errors : sum local = 2.46979e-09, global = -7.29718e-22, cumulative = -8.83585e-21
ExecutionTime = 4.21 s  ClockTime = 5 s

Time = 0.0006

Courant Number mean: 0.00511864 max: 0.0850107
DILUPBiCGStab:  Solving for Ux, Initial residual = 0.0336701, Final residual = 4.249e-07, No Iterations 5
DILUPBiCGStab:  Solving for Uy, Initial residual = 0.0480492, Final residual = 2.6857e-07, No Iterations 5
DILUPBiCGStab:  Solving for Uz, Initial residual = 0.0802598, Final residual = 4.7699e-07, No Iterations 5
linear solve U 34.022 [ms]
piso setup 11.926 [ms]
 correctNonOrthogonal 
 setRef 
 startSolve 
nonePCG:  Solving for p, Initial residual = 0.0269297, Final residual = 9.78073e-05, No Iterations 341
linear solve p 152.786 [ms]
piso step 158.782 [ms]
 contErrors 
time step continuity errors : sum local = 2.55425e-09, global = -6.76789e-22, cumulative = -9.51264e-21
piso setup 9.27 [ms]
 correctNonOrthogonal 
 setRef 
 startSolve 
nonePCG:  Solving for p, Initial residual = 0.0213698, Final residual = 9.56377e-05, No Iterations 312
linear solve p 140.777 [ms]
piso step 143.855 [ms]
 contErrors 
time step continuity errors : sum local = 2.42712e-09, global = -1.45737e-21, cumulative = -1.097e-20
ExecutionTime = 4.58 s  ClockTime = 5 s

Time = 0.0007

Courant Number mean: 0.00556497 max: 0.0864549
DILUPBiCGStab:  Solving for Ux, Initial residual = 0.0277666, Final residual = 3.23588e-07, No Iterations 5
DILUPBiCGStab:  Solving for Uy, Initial residual = 0.0392374, Final residual = 1.94328e-07, No Iterations 5
DILUPBiCGStab:  Solving for Uz, Initial residual = 0.0677421, Final residual = 3.85035e-07, No Iterations 5
linear solve U 33.1 [ms]
piso setup 11.307 [ms]
 correctNonOrthogonal 
 setRef 
 startSolve 
nonePCG:  Solving for p, Initial residual = 0.0207675, Final residual = 9.69154e-05, No Iterations 301
linear solve p 140.25 [ms]
piso step 145.713 [ms]
 contErrors 
time step continuity errors : sum local = 2.58906e-09, global = -1.60495e-21, cumulative = -1.2575e-20
piso setup 6.535 [ms]
 correctNonOrthogonal 
 setRef 
 startSolve 
nonePCG:  Solving for p, Initial residual = 0.0165043, Final residual = 9.73015e-05, No Iterations 293
linear solve p 153.605 [ms]
piso step 160.277 [ms]
 contErrors 
time step continuity errors : sum local = 2.51717e-09, global = -7.68327e-22, cumulative = -1.33433e-20
ExecutionTime = 4.95 s  ClockTime = 6 s

Time = 0.0008

Courant Number mean: 0.0059623 max: 0.0875193
DILUPBiCGStab:  Solving for Ux, Initial residual = 0.0236243, Final residual = 2.61674e-07, No Iterations 5
DILUPBiCGStab:  Solving for Uy, Initial residual = 0.0331355, Final residual = 1.5442e-07, No Iterations 5
DILUPBiCGStab:  Solving for Uz, Initial residual = 0.0588704, Final residual = 3.08945e-07, No Iterations 5
linear solve U 44.734 [ms]
piso setup 8.998 [ms]
 correctNonOrthogonal 
 setRef 
 startSolve 
nonePCG:  Solving for p, Initial residual = 0.0166958, Final residual = 9.76721e-05, No Iterations 294
linear solve p 145.967 [ms]
piso step 152.262 [ms]
 contErrors 
time step continuity errors : sum local = 2.61816e-09, global = -7.90319e-22, cumulative = -1.41336e-20
piso setup 6.638 [ms]
 correctNonOrthogonal 
 setRef 
 startSolve 
nonePCG:  Solving for p, Initial residual = 0.0133994, Final residual = 9.88468e-05, No Iterations 287
linear solve p 131.666 [ms]
piso step 136.001 [ms]
 contErrors 
time step continuity errors : sum local = 2.58852e-09, global = -1.6532e-21, cumulative = -1.57868e-20
ExecutionTime = 5.3 s  ClockTime = 6 s

Time = 0.0009

Courant Number mean: 0.00631847 max: 0.0883466
DILUPBiCGStab:  Solving for Ux, Initial residual = 0.0205606, Final residual = 2.16779e-07, No Iterations 5
DILUPBiCGStab:  Solving for Uy, Initial residual = 0.0286497, Final residual = 1.29183e-07, No Iterations 5
DILUPBiCGStab:  Solving for Uz, Initial residual = 0.0520057, Final residual = 2.55243e-07, No Iterations 5
linear solve U 35.562 [ms]
piso setup 7.625 [ms]
 correctNonOrthogonal 
 setRef 
 startSolve 
nonePCG:  Solving for p, Initial residual = 0.0139027, Final residual = 9.88346e-05, No Iterations 288
linear solve p 128.281 [ms]
piso step 132.337 [ms]
 contErrors 
time step continuity errors : sum local = 2.66793e-09, global = -1.4486e-21, cumulative = -1.72354e-20
piso setup 6.166 [ms]
 correctNonOrthogonal 
 setRef 
 startSolve 
nonePCG:  Solving for p, Initial residual = 0.0112152, Final residual = 9.77772e-05, No Iterations 283
linear solve p 131.784 [ms]
piso step 135.433 [ms]
 contErrors 
time step continuity errors : sum local = 2.59292e-09, global = -2.0608e-21, cumulative = -1.92962e-20
ExecutionTime = 5.63 s  ClockTime = 6 s

Time = 0.001

Courant Number mean: 0.00664438 max: 0.089014
DILUPBiCGStab:  Solving for Ux, Initial residual = 0.0181846, Final residual = 1.82148e-07, No Iterations 5
DILUPBiCGStab:  Solving for Uy, Initial residual = 0.0252122, Final residual = 1.11408e-07, No Iterations 5
DILUPBiCGStab:  Solving for Uz, Initial residual = 0.0465187, Final residual = 2.20618e-07, No Iterations 5
linear solve U 34.214 [ms]
piso setup 8.677 [ms]
 correctNonOrthogonal 
 setRef 
 startSolve 
nonePCG:  Solving for p, Initial residual = 0.0118838, Final residual = 9.89258e-05, No Iterations 285
linear solve p 127.938 [ms]
piso step 131.848 [ms]
 contErrors 
time step continuity errors : sum local = 2.68624e-09, global = -1.77068e-21, cumulative = -2.10669e-20
piso setup 7.805 [ms]
 correctNonOrthogonal 
 setRef 
 startSolve 
nonePCG:  Solving for p, Initial residual = 0.00962502, Final residual = 9.94805e-05, No Iterations 280
linear solve p 129.57 [ms]
piso step 132.161 [ms]
 contErrors 
time step continuity errors : sum local = 2.65914e-09, global = -2.54054e-21, cumulative = -2.36074e-20
ExecutionTime = 5.97 s  ClockTime = 7 s

Time = 0.0011

Courant Number mean: 0.00694533 max: 0.0895673
DILUPBiCGStab:  Solving for Ux, Initial residual = 0.016298, Final residual = 1.5498e-07, No Iterations 5
DILUPBiCGStab:  Solving for Uy, Initial residual = 0.0224932, Final residual = 9.81169e-08, No Iterations 5
DILUPBiCGStab:  Solving for Uz, Initial residual = 0.042037, Final residual = 1.96904e-07, No Iterations 5
linear solve U 32.596 [ms]
piso setup 8.47 [ms]
 correctNonOrthogonal 
 setRef 
 startSolve 
nonePCG:  Solving for p, Initial residual = 0.0102911, Final residual = 9.85966e-05, No Iterations 283
linear solve p 127.23 [ms]
piso step 131.262 [ms]
 contErrors 
time step continuity errors : sum local = 2.69397e-09, global = -1.18659e-21, cumulative = -2.4794e-20
piso setup 4.888 [ms]
 correctNonOrthogonal 
 setRef 
 startSolve 
nonePCG:  Solving for p, Initial residual = 0.00836048, Final residual = 9.53429e-05, No Iterations 278
linear solve p 129.127 [ms]
piso step 132.931 [ms]
 contErrors 
time step continuity errors : sum local = 2.5796e-09, global = -4.084e-22, cumulative = -2.52024e-20
ExecutionTime = 6.3 s  ClockTime = 7 s

Time = 0.0012

Courant Number mean: 0.0072238 max: 0.0900356
DILUPBiCGStab:  Solving for Ux, Initial residual = 0.0147479, Final residual = 1.33541e-07, No Iterations 5
DILUPBiCGStab:  Solving for Uy, Initial residual = 0.0202888, Final residual = 8.7765e-08, No Iterations 5
DILUPBiCGStab:  Solving for Uz, Initial residual = 0.038311, Final residual = 1.79028e-07, No Iterations 5
linear solve U 33.514 [ms]
piso setup 6.378 [ms]
 correctNonOrthogonal 
 setRef 
 startSolve 
nonePCG:  Solving for p, Initial residual = 0.00904495, Final residual = 9.7696e-05, No Iterations 279
linear solve p 127.366 [ms]
piso step 129.972 [ms]
 contErrors 
time step continuity errors : sum local = 2.68532e-09, global = -1.84486e-21, cumulative = -2.70473e-20
piso setup 5.648 [ms]
 correctNonOrthogonal 
 setRef 
 startSolve 
nonePCG:  Solving for p, Initial residual = 0.00738502, Final residual = 9.86186e-05, No Iterations 275
linear solve p 128.339 [ms]
piso step 132.163 [ms]
 contErrors 
time step continuity errors : sum local = 2.67759e-09, global = -2.24977e-21, cumulative = -2.9297e-20
ExecutionTime = 6.62 s  ClockTime = 7 s

Time = 0.0013

Courant Number mean: 0.00748302 max: 0.0904386
DILUPBiCGStab:  Solving for Ux, Initial residual = 0.0134667, Final residual = 1.16451e-07, No Iterations 5
DILUPBiCGStab:  Solving for Uy, Initial residual = 0.0184655, Final residual = 7.94789e-08, No Iterations 5
DILUPBiCGStab:  Solving for Uz, Initial residual = 0.0351691, Final residual = 1.64383e-07, No Iterations 5
linear solve U 32.736 [ms]
piso setup 5.608 [ms]
 correctNonOrthogonal 
 setRef 
 startSolve 
nonePCG:  Solving for p, Initial residual = 0.00809394, Final residual = 9.76318e-05, No Iterations 276
linear solve p 126.739 [ms]
piso step 129.695 [ms]
 contErrors 
time step continuity errors : sum local = 2.69623e-09, global = -1.44575e-21, cumulative = -3.07428e-20
piso setup 6.115 [ms]
 correctNonOrthogonal 
 setRef 
 startSolve 
nonePCG:  Solving for p, Initial residual = 0.00662882, Final residual = 9.95614e-05, No Iterations 271
linear solve p 130.07 [ms]
piso step 132.042 [ms]
 contErrors 
time step continuity errors : sum local = 2.71681e-09, global = -1.85706e-21, cumulative = -3.25998e-20
ExecutionTime = 6.94 s  ClockTime = 8 s

Time = 0.0014

Courant Number mean: 0.00772784 max: 0.0907903
DILUPBiCGStab:  Solving for Ux, Initial residual = 0.0123791, Final residual = 1.02685e-07, No Iterations 5
DILUPBiCGStab:  Solving for Uy, Initial residual = 0.0169327, Final residual = 7.27048e-08, No Iterations 5
DILUPBiCGStab:  Solving for Uz, Initial residual = 0.0324831, Final residual = 1.51557e-07, No Iterations 5
linear solve U 33.931 [ms]
piso setup 6.458 [ms]
 correctNonOrthogonal 
 setRef 
 startSolve 
nonePCG:  Solving for p, Initial residual = 0.00727954, Final residual = 9.80736e-05, No Iterations 274
linear solve p 136.638 [ms]
piso step 139.148 [ms]
 contErrors 
time step continuity errors : sum local = 2.71829e-09, global = -2.36139e-21, cumulative = -3.49612e-20
piso setup 5.848 [ms]
 correctNonOrthogonal 
 setRef 
 startSolve 
nonePCG:  Solving for p, Initial residual = 0.00597883, Final residual = 9.71315e-05, No Iterations 270
linear solve p 143.889 [ms]
piso step 148.677 [ms]
 contErrors 
time step continuity errors : sum local = 2.67099e-09, global = -5.11342e-22, cumulative = -3.54726e-20
ExecutionTime = 7.29 s  ClockTime = 8 s

Time = 0.0015

Courant Number mean: 0.00795861 max: 0.0911006
DILUPBiCGStab:  Solving for Ux, Initial residual = 0.0114468, Final residual = 9.14637e-08, No Iterations 5
DILUPBiCGStab:  Solving for Uy, Initial residual = 0.0156261, Final residual = 6.70756e-08, No Iterations 5
DILUPBiCGStab:  Solving for Uz, Initial residual = 0.0301614, Final residual = 1.39895e-07, No Iterations 5
linear solve U 37.219 [ms]
piso setup 5.93 [ms]
 correctNonOrthogonal 
 setRef 
 startSolve 
nonePCG:  Solving for p, Initial residual = 0.00657929, Final residual = 9.8096e-05, No Iterations 271
linear solve p 120.342 [ms]
piso step 123.786 [ms]
 contErrors 
time step continuity errors : sum local = 2.72829e-09, global = -2.26813e-21, cumulative = -3.77407e-20
piso setup 6.925 [ms]
 correctNonOrthogonal 
 setRef 
 startSolve 
nonePCG:  Solving for p, Initial residual = 0.00542526, Final residual = 9.8505e-05, No Iterations 266
linear solve p 120.914 [ms]
piso step 124.526 [ms]
 contErrors 
time step continuity errors : sum local = 2.71705e-09, global = -2.21573e-21, cumulative = -3.99564e-20
ExecutionTime = 7.6 s  ClockTime = 8 s

Time = 0.0016

Courant Number mean: 0.00817649 max: 0.0913769
DILUPBiCGStab:  Solving for Ux, Initial residual = 0.0106404, Final residual = 8.21873e-08, No Iterations 5
DILUPBiCGStab:  Solving for Uy, Initial residual = 0.0144993, Final residual = 6.23318e-08, No Iterations 5
DILUPBiCGStab:  Solving for Uz, Initial residual = 0.028136, Final residual = 1.2922e-07, No Iterations 5
linear solve U 31.856 [ms]
piso setup 4.626 [ms]
 correctNonOrthogonal 
 setRef 
 startSolve 
nonePCG:  Solving for p, Initial residual = 0.00603099, Final residual = 9.81331e-05, No Iterations 271
linear solve p 121.955 [ms]
piso step 124.548 [ms]
 contErrors 
time step continuity errors : sum local = 2.73859e-09, global = -2.3282e-21, cumulative = -4.22846e-20
piso setup 4.354 [ms]
 correctNonOrthogonal 
 setRef 
 startSolve 
nonePCG:  Solving for p, Initial residual = 0.00496395, Final residual = 9.47623e-05, No Iterations 265
linear solve p 122.169 [ms]
piso step 125.373 [ms]
 contErrors 
time step continuity errors : sum local = 2.63575e-09, global = -2.38518e-22, cumulative = -4.25232e-20
ExecutionTime = 7.91 s  ClockTime = 9 s

Time = 0.0017

Courant Number mean: 0.00838249 max: 0.0916252
DILUPBiCGStab:  Solving for Ux, Initial residual = 0.00993237, Final residual = 7.4453e-08, No Iterations 5
DILUPBiCGStab:  Solving for Uy, Initial residual = 0.0135175, Final residual = 5.8277e-08, No Iterations 5
DILUPBiCGStab:  Solving for Uz, Initial residual = 0.0263532, Final residual = 1.19367e-07, No Iterations 5
linear solve U 31.252 [ms]
piso setup 5.449 [ms]
 correctNonOrthogonal 
 setRef 
 startSolve 
nonePCG:  Solving for p, Initial residual = 0.00548752, Final residual = 9.81293e-05, No Iterations 269
linear solve p 123.483 [ms]
piso step 126.058 [ms]
 contErrors 
time step continuity errors : sum local = 2.74625e-09, global = -2.11984e-21, cumulative = -4.4643e-20
piso setup 6.095 [ms]
 correctNonOrthogonal 
 setRef 
 startSolve 
nonePCG:  Solving for p, Initial residual = 0.00454013, Final residual = 9.86492e-05, No Iterations 262
linear solve p 125.443 [ms]
piso step 129.3 [ms]
 contErrors 
time step continuity errors : sum local = 2.74124e-09, global = -1.2935e-21, cumulative = -4.59365e-20
ExecutionTime = 8.22 s  ClockTime = 9 s

Time = 0.0018

Courant Number mean: 0.00857955 max: 0.0918497
DILUPBiCGStab:  Solving for Ux, Initial residual = 0.00931094, Final residual = 6.79453e-08, No Iterations 5
DILUPBiCGStab:  Solving for Uy, Initial residual = 0.0126547, Final residual = 5.47773e-08, No Iterations 5
DILUPBiCGStab:  Solving for Uz, Initial residual = 0.0247728, Final residual = 1.10438e-07, No Iterations 5
linear solve U 31.446 [ms]
piso setup 7.453 [ms]
 correctNonOrthogonal 
 setRef 
 startSolve 
nonePCG:  Solving for p, Initial residual = 0.00508198, Final residual = 9.9085e-05, No Iterations 265
linear solve p 117.579 [ms]
piso step 120.123 [ms]
 contErrors 
time step continuity errors : sum local = 2.77739e-09, global = -1.87005e-21, cumulative = -4.78065e-20
piso setup 5.093 [ms]
 correctNonOrthogonal 
 setRef 
 startSolve 
nonePCG:  Solving for p, Initial residual = 0.0042138, Final residual = 9.69001e-05, No Iterations 261
linear solve p 119.51 [ms]
piso step 122.34 [ms]
 contErrors 
time step continuity errors : sum local = 2.70666e-09, global = -2.08079e-21, cumulative = -4.98873e-20
ExecutionTime = 8.52 s  ClockTime = 9 s

Time = 0.0019

Courant Number mean: 0.00876813 max: 0.092054
DILUPBiCGStab:  Solving for Ux, Initial residual = 0.00875811, Final residual = 6.23854e-08, No Iterations 5
DILUPBiCGStab:  Solving for Uy, Initial residual = 0.0118904, Final residual = 5.1723e-08, No Iterations 5
DILUPBiCGStab:  Solving for Uz, Initial residual = 0.0233621, Final residual = 1.02379e-07, No Iterations 5
linear solve U 31.868 [ms]
piso setup 6.209 [ms]
 correctNonOrthogonal 
 setRef 
 startSolve 
nonePCG:  Solving for p, Initial residual = 0.00474468, Final residual = 9.8888e-05, No Iterations 265
linear solve p 118.931 [ms]
piso step 120.702 [ms]
 contErrors 
time step continuity errors : sum local = 2.77912e-09, global = -2.94311e-21, cumulative = -5.28305e-20
piso setup 5.238 [ms]
 correctNonOrthogonal 
 setRef 
 startSolve 
nonePCG:  Solving for p, Initial residual = 0.003941, Final residual = 9.96207e-05, No Iterations 259
linear solve p 120.484 [ms]
piso step 123.445 [ms]
 contErrors 
time step continuity errors : sum local = 2.78202e-09, global = -2.28211e-21, cumulative = -5.51126e-20
ExecutionTime = 8.81 s  ClockTime = 10 s

Time = 0.002

Courant Number mean: 0.00894849 max: 0.0922409
DILUPBiCGStab:  Solving for Ux, Initial residual = 0.00826098, Final residual = 5.76009e-08, No Iterations 5
DILUPBiCGStab:  Solving for Uy, Initial residual = 0.0112088, Final residual = 4.90319e-08, No Iterations 5
DILUPBiCGStab:  Solving for Uz, Initial residual = 0.0220957, Final residual = 9.51243e-08, No Iterations 5
linear solve U 32.972 [ms]
piso setup 6.028 [ms]
 correctNonOrthogonal 
 setRef 
 startSolve 
nonePCG:  Solving for p, Initial residual = 0.00439659, Final residual = 9.87815e-05, No Iterations 263
linear solve p 116.849 [ms]
piso step 119.599 [ms]
 contErrors 
time step continuity errors : sum local = 2.78246e-09, global = -2.00633e-21, cumulative = -5.71189e-20
piso setup 4.186 [ms]
 correctNonOrthogonal 
 setRef 
 startSolve 
nonePCG:  Solving for p, Initial residual = 0.00365473, Final residual = 9.94666e-05, No Iterations 252
linear solve p 118.708 [ms]
piso step 121.697 [ms]
 contErrors 
time step continuity errors : sum local = 2.78529e-09, global = -2.02649e-21, cumulative = -5.91454e-20
ExecutionTime = 9.11 s  ClockTime = 10 s

End

Finalising parallel run
================================================================================
hash: 58b05c8f463145cbf2f6c38417bc9da8
/*---------------------------------------------------------------------------*\
| =========                 |                                                 |
| \\      /  F ield         | OpenFOAM: The Open Source CFD Toolbox           |
|  \\    /   O peration     | Version:  v2106                                 |
|   \\  /    A nd           | Website:  www.openfoam.com                      |
|    \\/     M anipulation  |                                                 |
\*---------------------------------------------------------------------------*/
Build  : f815a12bba-20210902 OPENFOAM=2106
Arch   : "LSB;label=32;scalar=64"
Exec   : icoFoam -parallel
Date   : Sep 28 2022
Time   : 14:34:14
Host   : nla-gpu2.ianm.kit.edu
PID    : 1065377
I/O    : uncollated
Case   : /home/greole/data/code/ogl_labbook/lidDrivenCavity/single_node/mesh/150/matrix_solver/CG_NoPrecond_OpenFOAM_Default/mpiRank_of/32/base
nProcs : 32
Hosts  :
(
    (nla-gpu2.ianm.kit.edu 32)
)
Pstream initialized with:
    floatTransfer      : 0
    nProcsSimpleSum    : 0
    commsType          : nonBlocking
    polling iterations : 0
trapFpe: Floating point exception trapping enabled (FOAM_SIGFPE).
fileModificationChecking : Monitoring run-time modified files using timeStampMaster (fileModificationSkew 5, maxFileModificationPolls 20)
allowSystemOperations : Allowing user-supplied system call operations

// * * * * * * * * * * * * * * * * * * * * * * * * * * * * * * * * * * * * * //
Create time

Create mesh for time = 0


PISO: Operating solver in PISO mode

Reading transportProperties

Reading field p

Reading field U

Reading/calculating face flux field phi


Starting time loop

Time = 6.66667e-05

Courant Number mean: 0 max: 0
DILUPBiCGStab:  Solving for Ux, Initial residual = 1, Final residual = 3.89947e-05, No Iterations 5
DILUPBiCGStab:  Solving for Uy:  solution singularity
DILUPBiCGStab:  Solving for Uz:  solution singularity
linear solve U 116.584 [ms]
piso setup 66.071 [ms]
 correctNonOrthogonal 
 setRef 
 startSolve 
nonePCG:  Solving for p, Initial residual = 1, Final residual = 9.93446e-05, No Iterations 1199
linear solve p 1943.09 [ms]
piso step 1976.86 [ms]
 contErrors 
time step continuity errors : sum local = 9.91854e-10, global = 5.06726e-22, cumulative = 5.06726e-22
piso setup 62.318 [ms]
 correctNonOrthogonal 
 setRef 
 startSolve 
nonePCG:  Solving for p, Initial residual = 0.611423, Final residual = 9.85777e-05, No Iterations 1177
linear solve p 1882.62 [ms]
piso step 1906.54 [ms]
 contErrors 
time step continuity errors : sum local = 1.4639e-09, global = 1.26235e-22, cumulative = 6.3296e-22
ExecutionTime = 4.94 s  ClockTime = 5 s

Time = 0.000133333

Courant Number mean: 0.00174417 max: 0.0611824
DILUPBiCGStab:  Solving for Ux, Initial residual = 0.201555, Final residual = 2.5587e-05, No Iterations 5
DILUPBiCGStab:  Solving for Uy, Initial residual = 0.321506, Final residual = 2.53455e-05, No Iterations 5
DILUPBiCGStab:  Solving for Uz, Initial residual = 0.989645, Final residual = 8.36039e-05, No Iterations 5
linear solve U 142.385 [ms]
piso setup 48.969 [ms]
 correctNonOrthogonal 
 setRef 
 startSolve 
nonePCG:  Solving for p, Initial residual = 0.453047, Final residual = 9.36621e-05, No Iterations 1164
linear solve p 1821.66 [ms]
piso step 1847.85 [ms]
 contErrors 
time step continuity errors : sum local = 1.34056e-09, global = 7.58576e-23, cumulative = 7.08818e-22
piso setup 32.839 [ms]
 correctNonOrthogonal 
 setRef 
 startSolve 
nonePCG:  Solving for p, Initial residual = 0.360331, Final residual = 9.90055e-05, No Iterations 1159
linear solve p 1808.18 [ms]
piso step 1827.58 [ms]
 contErrors 
time step continuity errors : sum local = 1.47002e-09, global = 5.40295e-23, cumulative = 7.62848e-22
ExecutionTime = 8.89 s  ClockTime = 9 s

Time = 0.0002

Courant Number mean: 0.00271566 max: 0.0777794
DILUPBiCGStab:  Solving for Ux, Initial residual = 0.0868446, Final residual = 9.95981e-06, No Iterations 5
DILUPBiCGStab:  Solving for Uy, Initial residual = 0.138256, Final residual = 7.27525e-06, No Iterations 5
DILUPBiCGStab:  Solving for Uz, Initial residual = 0.144776, Final residual = 1.45401e-05, No Iterations 5
linear solve U 149.326 [ms]
piso setup 32.852 [ms]
 correctNonOrthogonal 
 setRef 
 startSolve 
nonePCG:  Solving for p, Initial residual = 0.173752, Final residual = 9.93513e-05, No Iterations 1138
linear solve p 1775.67 [ms]
piso step 1794.9 [ms]
 contErrors 
time step continuity errors : sum local = 1.17002e-09, global = 9.85624e-23, cumulative = 8.6141e-22
piso setup 26.939 [ms]
 correctNonOrthogonal 
 setRef 
 startSolve 
nonePCG:  Solving for p, Initial residual = 0.141199, Final residual = 9.99723e-05, No Iterations 1116
linear solve p 1731.39 [ms]
piso step 1749.09 [ms]
 contErrors 
time step continuity errors : sum local = 1.17505e-09, global = 4.76069e-22, cumulative = 1.33748e-21
ExecutionTime = 12.68 s  ClockTime = 13 s

Time = 0.000266667

Courant Number mean: 0.0033815 max: 0.0835577
DILUPBiCGStab:  Solving for Ux, Initial residual = 0.0544582, Final residual = 4.48347e-06, No Iterations 5
DILUPBiCGStab:  Solving for Uy, Initial residual = 0.086037, Final residual = 4.06591e-06, No Iterations 5
DILUPBiCGStab:  Solving for Uz, Initial residual = 0.11682, Final residual = 7.57037e-06, No Iterations 5
linear solve U 147.255 [ms]
piso setup 25.429 [ms]
 correctNonOrthogonal 
 setRef 
 startSolve 
nonePCG:  Solving for p, Initial residual = 0.0874772, Final residual = 9.95991e-05, No Iterations 1106
linear solve p 1715.16 [ms]
piso step 1731.65 [ms]
 contErrors 
time step continuity errors : sum local = 1.11815e-09, global = 1.69722e-22, cumulative = 1.5072e-21
piso setup 25.917 [ms]
 correctNonOrthogonal 
 setRef 
 startSolve 
nonePCG:  Solving for p, Initial residual = 0.070159, Final residual = 9.85419e-05, No Iterations 1099
linear solve p 1715.44 [ms]
piso step 1730.45 [ms]
 contErrors 
time step continuity errors : sum local = 1.1205e-09, global = -2.26684e-22, cumulative = 1.28052e-21
ExecutionTime = 16.37 s  ClockTime = 17 s

Time = 0.000333333

Courant Number mean: 0.00390573 max: 0.0863402
DILUPBiCGStab:  Solving for Ux, Initial residual = 0.0400408, Final residual = 3.07964e-06, No Iterations 5
DILUPBiCGStab:  Solving for Uy, Initial residual = 0.0618407, Final residual = 2.44931e-06, No Iterations 5
DILUPBiCGStab:  Solving for Uz, Initial residual = 0.093447, Final residual = 4.58843e-06, No Iterations 5
linear solve U 138.488 [ms]
piso setup 28.276 [ms]
 correctNonOrthogonal 
 setRef 
 startSolve 
nonePCG:  Solving for p, Initial residual = 0.0476588, Final residual = 9.81471e-05, No Iterations 537
linear solve p 851.993 [ms]
piso step 864.121 [ms]
 contErrors 
time step continuity errors : sum local = 1.21834e-09, global = -5.53418e-23, cumulative = 1.22517e-21
piso setup 23.845 [ms]
 correctNonOrthogonal 
 setRef 
 startSolve 
nonePCG:  Solving for p, Initial residual = 0.0395761, Final residual = 9.81935e-05, No Iterations 509
linear solve p 785.733 [ms]
piso step 798.638 [ms]
 contErrors 
time step continuity errors : sum local = 1.14693e-09, global = -1.50051e-22, cumulative = 1.07512e-21
ExecutionTime = 18.28 s  ClockTime = 19 s

Time = 0.0004

Courant Number mean: 0.00434732 max: 0.0880159
DILUPBiCGStab:  Solving for Ux, Initial residual = 0.0318467, Final residual = 1.98518e-06, No Iterations 5
DILUPBiCGStab:  Solving for Uy, Initial residual = 0.0483434, Final residual = 1.54889e-06, No Iterations 5
DILUPBiCGStab:  Solving for Uz, Initial residual = 0.0786536, Final residual = 3.44651e-06, No Iterations 5
linear solve U 140.271 [ms]
piso setup 24.986 [ms]
 correctNonOrthogonal 
 setRef 
 startSolve 
nonePCG:  Solving for p, Initial residual = 0.0313499, Final residual = 9.9962e-05, No Iterations 483
linear solve p 746.626 [ms]
piso step 759.499 [ms]
 contErrors 
time step continuity errors : sum local = 1.1811e-09, global = -2.08654e-22, cumulative = 8.6647e-22
piso setup 23.564 [ms]
 correctNonOrthogonal 
 setRef 
 startSolve 
nonePCG:  Solving for p, Initial residual = 0.0263751, Final residual = 9.99708e-05, No Iterations 471
linear solve p 733.657 [ms]
piso step 746.478 [ms]
 contErrors 
time step continuity errors : sum local = 1.16256e-09, global = 1.055e-22, cumulative = 9.7197e-22
ExecutionTime = 20.01 s  ClockTime = 20 s

Time = 0.000466667

Courant Number mean: 0.00473116 max: 0.0891667
DILUPBiCGStab:  Solving for Ux, Initial residual = 0.0265061, Final residual = 1.54297e-06, No Iterations 5
DILUPBiCGStab:  Solving for Uy, Initial residual = 0.0396432, Final residual = 1.13046e-06, No Iterations 5
DILUPBiCGStab:  Solving for Uz, Initial residual = 0.0668612, Final residual = 2.82034e-06, No Iterations 5
linear solve U 144.56 [ms]
piso setup 24.692 [ms]
 correctNonOrthogonal 
 setRef 
 startSolve 
nonePCG:  Solving for p, Initial residual = 0.0241573, Final residual = 9.8608e-05, No Iterations 467
linear solve p 719.457 [ms]
piso step 733.981 [ms]
 contErrors 
time step continuity errors : sum local = 1.19607e-09, global = 2.95241e-22, cumulative = 1.26721e-21
piso setup 21.186 [ms]
 correctNonOrthogonal 
 setRef 
 startSolve 
nonePCG:  Solving for p, Initial residual = 0.0205423, Final residual = 9.8872e-05, No Iterations 452
linear solve p 706.788 [ms]
piso step 718.315 [ms]
 contErrors 
time step continuity errors : sum local = 1.16708e-09, global = -4.59664e-22, cumulative = 8.07548e-22
ExecutionTime = 21.7 s  ClockTime = 22 s

Time = 0.000533333

Courant Number mean: 0.00507434 max: 0.0900213
DILUPBiCGStab:  Solving for Ux, Initial residual = 0.0227241, Final residual = 1.24579e-06, No Iterations 5
DILUPBiCGStab:  Solving for Uy, Initial residual = 0.0335808, Final residual = 8.66448e-07, No Iterations 5
DILUPBiCGStab:  Solving for Uz, Initial residual = 0.0582586, Final residual = 2.42347e-06, No Iterations 5
linear solve U 137.61 [ms]
piso setup 23.652 [ms]
 correctNonOrthogonal 
 setRef 
 startSolve 
nonePCG:  Solving for p, Initial residual = 0.0189147, Final residual = 9.69809e-05, No Iterations 452
linear solve p 692.689 [ms]
piso step 705.708 [ms]
 contErrors 
time step continuity errors : sum local = 1.16818e-09, global = 1.86178e-22, cumulative = 9.93725e-22
piso setup 21.432 [ms]
 correctNonOrthogonal 
 setRef 
 startSolve 
nonePCG:  Solving for p, Initial residual = 0.01628, Final residual = 9.92712e-05, No Iterations 443
linear solve p 679.688 [ms]
piso step 690.2 [ms]
 contErrors 
time step continuity errors : sum local = 1.17752e-09, global = -1.65436e-24, cumulative = 9.92071e-22
ExecutionTime = 23.32 s  ClockTime = 24 s

Time = 0.0006

Courant Number mean: 0.00538422 max: 0.0906888
DILUPBiCGStab:  Solving for Ux, Initial residual = 0.0198902, Final residual = 1.01501e-06, No Iterations 5
DILUPBiCGStab:  Solving for Uy, Initial residual = 0.0291029, Final residual = 7.04748e-07, No Iterations 5
DILUPBiCGStab:  Solving for Uz, Initial residual = 0.051653, Final residual = 2.13794e-06, No Iterations 5
linear solve U 138.297 [ms]
piso setup 22.794 [ms]
 correctNonOrthogonal 
 setRef 
 startSolve 
nonePCG:  Solving for p, Initial residual = 0.0159037, Final residual = 9.73715e-05, No Iterations 443
linear solve p 683.381 [ms]
piso step 696.312 [ms]
 contErrors 
time step continuity errors : sum local = 1.1836e-09, global = -5.2557e-22, cumulative = 4.66501e-22
piso setup 21.87 [ms]
 correctNonOrthogonal 
 setRef 
 startSolve 
nonePCG:  Solving for p, Initial residual = 0.013746, Final residual = 9.70926e-05, No Iterations 437
linear solve p 681.8 [ms]
piso step 692.792 [ms]
 contErrors 
time step continuity errors : sum local = 1.16222e-09, global = 5.90297e-22, cumulative = 1.0568e-21
ExecutionTime = 24.92 s  ClockTime = 25 s

Time = 0.000666667

Courant Number mean: 0.00566923 max: 0.0912289
DILUPBiCGStab:  Solving for Ux, Initial residual = 0.017683, Final residual = 8.38301e-07, No Iterations 5
DILUPBiCGStab:  Solving for Uy, Initial residual = 0.0256634, Final residual = 5.91544e-07, No Iterations 5
DILUPBiCGStab:  Solving for Uz, Initial residual = 0.046337, Final residual = 1.8698e-06, No Iterations 5
linear solve U 139.335 [ms]
piso setup 23.667 [ms]
 correctNonOrthogonal 
 setRef 
 startSolve 
nonePCG:  Solving for p, Initial residual = 0.0135396, Final residual = 9.6949e-05, No Iterations 437
linear solve p 665.852 [ms]
piso step 677.874 [ms]
 contErrors 
time step continuity errors : sum local = 1.17935e-09, global = -8.49239e-24, cumulative = 1.04831e-21
piso setup 22.754 [ms]
 correctNonOrthogonal 
 setRef 
 startSolve 
nonePCG:  Solving for p, Initial residual = 0.0117515, Final residual = 9.44076e-05, No Iterations 433
linear solve p 663.601 [ms]
piso step 673.517 [ms]
 contErrors 
time step continuity errors : sum local = 1.13744e-09, global = -1.54083e-22, cumulative = 8.94222e-22
ExecutionTime = 26.49 s  ClockTime = 27 s

Time = 0.000733333

Courant Number mean: 0.00593221 max: 0.0916776
DILUPBiCGStab:  Solving for Ux, Initial residual = 0.0159171, Final residual = 7.02921e-07, No Iterations 5
DILUPBiCGStab:  Solving for Uy, Initial residual = 0.0229363, Final residual = 5.10061e-07, No Iterations 5
DILUPBiCGStab:  Solving for Uz, Initial residual = 0.0420045, Final residual = 1.62748e-06, No Iterations 5
linear solve U 137.433 [ms]
piso setup 22.462 [ms]
 correctNonOrthogonal 
 setRef 
 startSolve 
nonePCG:  Solving for p, Initial residual = 0.0118168, Final residual = 9.46331e-05, No Iterations 433
linear solve p 665.594 [ms]
piso step 677.226 [ms]
 contErrors 
time step continuity errors : sum local = 1.15858e-09, global = 5.58964e-22, cumulative = 1.45319e-21
piso setup 20.566 [ms]
 correctNonOrthogonal 
 setRef 
 startSolve 
nonePCG:  Solving for p, Initial residual = 0.0102759, Final residual = 9.98402e-05, No Iterations 427
linear solve p 655.394 [ms]
piso step 666.284 [ms]
 contErrors 
time step continuity errors : sum local = 1.20582e-09, global = -1.11532e-22, cumulative = 1.34165e-21
ExecutionTime = 28.06 s  ClockTime = 28 s

Time = 0.0008

Courant Number mean: 0.00617735 max: 0.0920581
DILUPBiCGStab:  Solving for Ux, Initial residual = 0.0144668, Final residual = 5.98908e-07, No Iterations 5
DILUPBiCGStab:  Solving for Uy, Initial residual = 0.020722, Final residual = 4.48331e-07, No Iterations 5
DILUPBiCGStab:  Solving for Uz, Initial residual = 0.0383892, Final residual = 1.40673e-06, No Iterations 5
linear solve U 142.74 [ms]
piso setup 24.56 [ms]
 correctNonOrthogonal 
 setRef 
 startSolve 
nonePCG:  Solving for p, Initial residual = 0.0104039, Final residual = 9.52602e-05, No Iterations 428
linear solve p 662.873 [ms]
piso step 673.279 [ms]
 contErrors 
time step continuity errors : sum local = 1.16818e-09, global = 6.94866e-23, cumulative = 1.41114e-21
piso setup 20.96 [ms]
 correctNonOrthogonal 
 setRef 
 startSolve 
nonePCG:  Solving for p, Initial residual = 0.00907874, Final residual = 9.58088e-05, No Iterations 424
linear solve p 657.096 [ms]
piso step 668.077 [ms]
 contErrors 
time step continuity errors : sum local = 1.16447e-09, global = 1.23457e-23, cumulative = 1.42349e-21
ExecutionTime = 29.63 s  ClockTime = 30 s

Time = 0.000866667

Courant Number mean: 0.00640756 max: 0.0923861
DILUPBiCGStab:  Solving for Ux, Initial residual = 0.0132555, Final residual = 5.17793e-07, No Iterations 5
DILUPBiCGStab:  Solving for Uy, Initial residual = 0.018888, Final residual = 4.00297e-07, No Iterations 5
DILUPBiCGStab:  Solving for Uz, Initial residual = 0.0353368, Final residual = 1.21221e-06, No Iterations 5
linear solve U 139.971 [ms]
piso setup 22.948 [ms]
 correctNonOrthogonal 
 setRef 
 startSolve 
nonePCG:  Solving for p, Initial residual = 0.00929343, Final residual = 9.85338e-05, No Iterations 424
linear solve p 647.24 [ms]
piso step 657.533 [ms]
 contErrors 
time step continuity errors : sum local = 1.20955e-09, global = 3.38258e-22, cumulative = 1.76175e-21
piso setup 21.045 [ms]
 correctNonOrthogonal 
 setRef 
 startSolve 
nonePCG:  Solving for p, Initial residual = 0.00812553, Final residual = 9.74305e-05, No Iterations 420
linear solve p 651.705 [ms]
piso step 662.186 [ms]
 contErrors 
time step continuity errors : sum local = 1.1877e-09, global = 5.85299e-23, cumulative = 1.82028e-21
ExecutionTime = 31.17 s  ClockTime = 32 s

Time = 0.000933333

Courant Number mean: 0.00662382 max: 0.0926725
DILUPBiCGStab:  Solving for Ux, Initial residual = 0.0122271, Final residual = 4.53893e-07, No Iterations 5
DILUPBiCGStab:  Solving for Uy, Initial residual = 0.0173444, Final residual = 3.61984e-07, No Iterations 5
DILUPBiCGStab:  Solving for Uz, Initial residual = 0.0327202, Final residual = 1.04799e-06, No Iterations 5
linear solve U 139.198 [ms]
piso setup 22.484 [ms]
 correctNonOrthogonal 
 setRef 
 startSolve 
nonePCG:  Solving for p, Initial residual = 0.00839027, Final residual = 9.87549e-05, No Iterations 421
linear solve p 647.795 [ms]
piso step 657.364 [ms]
 contErrors 
time step continuity errors : sum local = 1.21477e-09, global = -3.64235e-23, cumulative = 1.78385e-21
piso setup 23.488 [ms]
 correctNonOrthogonal 
 setRef 
 startSolve 
nonePCG:  Solving for p, Initial residual = 0.00735104, Final residual = 9.7801e-05, No Iterations 417
linear solve p 658.179 [ms]
piso step 668.243 [ms]
 contErrors 
time step continuity errors : sum local = 1.19586e-09, global = -5.49606e-22, cumulative = 1.23425e-21
ExecutionTime = 32.73 s  ClockTime = 33 s

Time = 0.001

Courant Number mean: 0.00682868 max: 0.0929255
DILUPBiCGStab:  Solving for Ux, Initial residual = 0.0113437, Final residual = 4.02983e-07, No Iterations 5
DILUPBiCGStab:  Solving for Uy, Initial residual = 0.0160273, Final residual = 3.30745e-07, No Iterations 5
DILUPBiCGStab:  Solving for Uz, Initial residual = 0.0304531, Final residual = 9.10466e-07, No Iterations 5
linear solve U 139.649 [ms]
piso setup 22.057 [ms]
 correctNonOrthogonal 
 setRef 
 startSolve 
nonePCG:  Solving for p, Initial residual = 0.00760325, Final residual = 9.88065e-05, No Iterations 418
linear solve p 638.633 [ms]
piso step 648.444 [ms]
 contErrors 
time step continuity errors : sum local = 1.21832e-09, global = 1.00089e-23, cumulative = 1.24425e-21
piso setup 21.095 [ms]
 correctNonOrthogonal 
 setRef 
 startSolve 
nonePCG:  Solving for p, Initial residual = 0.00667883, Final residual = 9.73433e-05, No Iterations 412
linear solve p 630.812 [ms]
piso step 641.239 [ms]
 contErrors 
time step continuity errors : sum local = 1.19416e-09, global = 2.47279e-22, cumulative = 1.49153e-21
ExecutionTime = 34.23 s  ClockTime = 35 s

Time = 0.00106667

Courant Number mean: 0.00702348 max: 0.093151
DILUPBiCGStab:  Solving for Ux, Initial residual = 0.010576, Final residual = 3.62667e-07, No Iterations 5
DILUPBiCGStab:  Solving for Uy, Initial residual = 0.0148905, Final residual = 3.04808e-07, No Iterations 5
DILUPBiCGStab:  Solving for Uz, Initial residual = 0.0284688, Final residual = 7.97718e-07, No Iterations 5
linear solve U 141.842 [ms]
piso setup 23.32 [ms]
 correctNonOrthogonal 
 setRef 
 startSolve 
nonePCG:  Solving for p, Initial residual = 0.00695754, Final residual = 9.95373e-05, No Iterations 416
linear solve p 644.458 [ms]
piso step 654.808 [ms]
 contErrors 
time step continuity errors : sum local = 1.22915e-09, global = -2.75175e-23, cumulative = 1.46402e-21
piso setup 23.283 [ms]
 correctNonOrthogonal 
 setRef 
 startSolve 
nonePCG:  Solving for p, Initial residual = 0.0061136, Final residual = 9.55332e-05, No Iterations 410
linear solve p 636.297 [ms]
piso step 646.856 [ms]
 contErrors 
time step continuity errors : sum local = 1.17643e-09, global = 3.652e-22, cumulative = 1.82922e-21
ExecutionTime = 35.76 s  ClockTime = 36 s

Time = 0.00113333

Courant Number mean: 0.00720866 max: 0.0933538
DILUPBiCGStab:  Solving for Ux, Initial residual = 0.00990237, Final residual = 3.29709e-07, No Iterations 5
DILUPBiCGStab:  Solving for Uy, Initial residual = 0.0138992, Final residual = 2.82947e-07, No Iterations 5
DILUPBiCGStab:  Solving for Uz, Initial residual = 0.026718, Final residual = 7.05381e-07, No Iterations 5
linear solve U 136.951 [ms]
piso setup 22.543 [ms]
 correctNonOrthogonal 
 setRef 
 startSolve 
nonePCG:  Solving for p, Initial residual = 0.00635448, Final residual = 9.98985e-05, No Iterations 411
linear solve p 630.95 [ms]
piso step 641.886 [ms]
 contErrors 
time step continuity errors : sum local = 1.23568e-09, global = -2.38711e-22, cumulative = 1.59051e-21
piso setup 23.046 [ms]
 correctNonOrthogonal 
 setRef 
 startSolve 
nonePCG:  Solving for p, Initial residual = 0.00560522, Final residual = 9.83258e-05, No Iterations 405
linear solve p 625.585 [ms]
piso step 635.829 [ms]
 contErrors 
time step continuity errors : sum local = 1.21149e-09, global = 1.21458e-22, cumulative = 1.71196e-21
ExecutionTime = 37.26 s  ClockTime = 38 s

Time = 0.0012

Courant Number mean: 0.00738517 max: 0.0935373
DILUPBiCGStab:  Solving for Ux, Initial residual = 0.00930647, Final residual = 3.02032e-07, No Iterations 5
DILUPBiCGStab:  Solving for Uy, Initial residual = 0.0130275, Final residual = 2.64263e-07, No Iterations 5
DILUPBiCGStab:  Solving for Uz, Initial residual = 0.0251622, Final residual = 6.30642e-07, No Iterations 5
linear solve U 141.736 [ms]
piso setup 22.353 [ms]
 correctNonOrthogonal 
 setRef 
 startSolve 
nonePCG:  Solving for p, Initial residual = 0.00593349, Final residual = 9.60076e-05, No Iterations 411
linear solve p 627.948 [ms]
piso step 637.704 [ms]
 contErrors 
time step continuity errors : sum local = 1.19291e-09, global = -3.46637e-22, cumulative = 1.36533e-21
piso setup 22.823 [ms]
 correctNonOrthogonal 
 setRef 
 startSolve 
nonePCG:  Solving for p, Initial residual = 0.00522046, Final residual = 9.69589e-05, No Iterations 403
linear solve p 615.13 [ms]
piso step 624.974 [ms]
 contErrors 
time step continuity errors : sum local = 1.19836e-09, global = 2.60672e-22, cumulative = 1.626e-21
ExecutionTime = 38.75 s  ClockTime = 39 s

Time = 0.00126667

Courant Number mean: 0.00755472 max: 0.0937044
DILUPBiCGStab:  Solving for Ux, Initial residual = 0.00877654, Final residual = 2.78496e-07, No Iterations 5
DILUPBiCGStab:  Solving for Uy, Initial residual = 0.0122548, Final residual = 2.48144e-07, No Iterations 5
DILUPBiCGStab:  Solving for Uz, Initial residual = 0.0237705, Final residual = 5.68871e-07, No Iterations 5
linear solve U 136.626 [ms]
piso setup 22.122 [ms]
 correctNonOrthogonal 
 setRef 
 startSolve 
nonePCG:  Solving for p, Initial residual = 0.00544411, Final residual = 9.84798e-05, No Iterations 405
linear solve p 607.198 [ms]
piso step 616.992 [ms]
 contErrors 
time step continuity errors : sum local = 1.22333e-09, global = -1.38608e-22, cumulative = 1.48739e-21
piso setup 20.853 [ms]
 correctNonOrthogonal 
 setRef 
 startSolve 
nonePCG:  Solving for p, Initial residual = 0.00481042, Final residual = 9.19825e-05, No Iterations 401
linear solve p 630.756 [ms]
piso step 640.132 [ms]
 contErrors 
time step continuity errors : sum local = 1.14306e-09, global = -5.73436e-22, cumulative = 9.13954e-22
ExecutionTime = 40.22 s  ClockTime = 41 s

Time = 0.00133333

Courant Number mean: 0.00771733 max: 0.0938574
DILUPBiCGStab:  Solving for Ux, Initial residual = 0.00829975, Final residual = 2.58194e-07, No Iterations 5
DILUPBiCGStab:  Solving for Uy, Initial residual = 0.0115654, Final residual = 2.34061e-07, No Iterations 5
DILUPBiCGStab:  Solving for Uz, Initial residual = 0.0225187, Final residual = 5.18457e-07, No Iterations 5
linear solve U 137.703 [ms]
piso setup 22.133 [ms]
 correctNonOrthogonal 
 setRef 
 startSolve 
nonePCG:  Solving for p, Initial residual = 0.00514552, Final residual = 9.69349e-05, No Iterations 404
linear solve p 619.454 [ms]
piso step 629.019 [ms]
 contErrors 
time step continuity errors : sum local = 1.20741e-09, global = 1.83262e-22, cumulative = 1.09722e-21
piso setup 21.081 [ms]
 correctNonOrthogonal 
 setRef 
 startSolve 
nonePCG:  Solving for p, Initial residual = 0.00455348, Final residual = 9.94414e-05, No Iterations 394
linear solve p 603.97 [ms]
piso step 613.648 [ms]
 contErrors 
time step continuity errors : sum local = 1.23163e-09, global = -5.3855e-22, cumulative = 5.58666e-22
ExecutionTime = 41.68 s  ClockTime = 42 s

End

Finalising parallel run
================================================================================
