hash: ec6cb03bf14dad7317b25d3d49f006fb
/*---------------------------------------------------------------------------*\
| =========                 |                                                 |
| \\      /  F ield         | OpenFOAM: The Open Source CFD Toolbox           |
|  \\    /   O peration     | Version:  v2106                                 |
|   \\  /    A nd           | Website:  www.openfoam.com                      |
|    \\/     M anipulation  |                                                 |
\*---------------------------------------------------------------------------*/
Build  : f815a12bba-20210902 OPENFOAM=2106
Arch   : "LSB;label=32;scalar=64"
Exec   : icoFoam -parallel
Date   : Jun 26 2022
Time   : 14:26:17
Host   : nla-gpu2.ianm.kit.edu
PID    : 69873
I/O    : uncollated
Case   : /home/greole/data/code/ogl_labbook/lidDrivenCavity/simple/mesh/200/matrix_solver/CG_NoPrecond_HIP/mpiRank_gko/4/base
nProcs : 4
Hosts  :
(
    (nla-gpu2.ianm.kit.edu 4)
)
Pstream initialized with:
    floatTransfer      : 0
    nProcsSimpleSum    : 0
    commsType          : nonBlocking
    polling iterations : 0
trapFpe: Floating point exception trapping enabled (FOAM_SIGFPE).
fileModificationChecking : Monitoring run-time modified files using timeStampMaster (fileModificationSkew 5, maxFileModificationPolls 20)
allowSystemOperations : Allowing user-supplied system call operations

// * * * * * * * * * * * * * * * * * * * * * * * * * * * * * * * * * * * * * //
Create time

Create mesh for time = 0


PISO: Operating solver in PISO mode

Reading transportProperties

Reading field p

Reading field U

Reading/calculating face flux field phi


Starting time loop

Time = 5e-05

Courant Number mean: 0 max: 0
DILUPBiCGStab:  Solving for Ux, Initial residual = 1, Final residual = 8.68229e-05, No Iterations 5
DILUPBiCGStab:  Solving for Uy:  solution singularity
DILUPBiCGStab:  Solving for Uz:  solution singularity
linear solve U 1638562
[OGL LOG][Proc: 0]global_index_init: 8.268 [ms]
[OGL LOG][Proc: 0]global_index_init: 0.003 [ms]
[OGL LOG][Proc: 0]init_host_sparsity_pattern: 50646.2 [ms]
[OGL LOG][Proc: 0]update_host_matrix_data: 316 [ms]
[OGL LOG][Proc: 0]convert_coo_to_csr: 463.954 [ms]
[OGL LOG][lduLduBase.H:153] Initialising OGL
	Version:  484b851
	branch: multi_gpu 
	Ginkgo version: 1.5.0(develop)
	MPI is GPU aware: 1)
	Forces host buffer based communication: 1
[OGL LOG][Proc: 0]gather_global_matrix: 0 [ms]
[OGL LOG][Proc: 0]generate_distributed_matrix: 74.606 [ms]
[OGL LOG][Proc: 0]init_precond: 0.455 [ms]
[OGL LOG][Proc: 0]generate_solver: 0.028 [ms]
[OGL LOG][Proc: 0]solve: 2636.11 [ms]
[OGL LOG][Proc: 0]copy_x_back: 8.815 [ms]
[OGL LOG][lduLduBase.H:380] 
Statistics:
	Time per iteration: 1632 [mu s]
	Time per iteration and DOF: 0.204000 [ns]
	Retrieve results bandwith 1.815000 [GByte/s]
nonehipGKOCG:  Solving for p, Initial residual = 1, Final residual = 9.94893e-05, No Iterations 1615
linear solve p 56271253
time step continuity errors : sum local = 6.57667e-10, global = 7.01513e-22, cumulative = 7.01513e-22
[OGL LOG][Proc: 0]global_index_init: 0.018 [ms]
[OGL LOG][Proc: 0]global_index_init: 0.001 [ms]
[OGL LOG][Proc: 0]update_host_matrix_data: 164.456 [ms]
[OGL LOG][Proc: 0]gather_global_matrix: 0 [ms]
[OGL LOG][Proc: 0]generate_distributed_matrix: 42.46 [ms]
[OGL LOG][Proc: 0]init_precond: 0.049 [ms]
[OGL LOG][Proc: 0]generate_solver: 0.002 [ms]
[OGL LOG][Proc: 0]solve: 2158.13 [ms]
[OGL LOG][Proc: 0]copy_x_back: 9.174 [ms]
[OGL LOG][lduLduBase.H:380] 
Statistics:
	Time per iteration: 1347 [mu s]
	Time per iteration and DOF: 0.168375 [ns]
	Retrieve results bandwith 1.744000 [GByte/s]
nonehipGKOCG:  Solving for p, Initial residual = 0.644867, Final residual = 7.60342e-05, No Iterations 1601
linear solve p 2397310
time step continuity errors : sum local = 7.26141e-10, global = 4.66439e-23, cumulative = 7.48157e-22
ExecutionTime = 72.96 s  ClockTime = 73 s

Time = 0.0001

Courant Number mean: 0.0015614 max: 0.0657801
DILUPBiCGStab:  Solving for Ux, Initial residual = 0.189842, Final residual = 4.73719e-05, No Iterations 5
DILUPBiCGStab:  Solving for Uy, Initial residual = 0.330041, Final residual = 2.54858e-05, No Iterations 5
DILUPBiCGStab:  Solving for Uz, Initial residual = 0.993237, Final residual = 0.000106057, No Iterations 5
linear solve U 3237022
[OGL LOG][Proc: 0]global_index_init: 0.029 [ms]
[OGL LOG][Proc: 0]global_index_init: 0.001 [ms]
[OGL LOG][Proc: 0]update_host_matrix_data: 162.972 [ms]
[OGL LOG][Proc: 0]gather_global_matrix: 0 [ms]
[OGL LOG][Proc: 0]generate_distributed_matrix: 40.735 [ms]
[OGL LOG][Proc: 0]init_precond: 0.044 [ms]
[OGL LOG][Proc: 0]generate_solver: 0.002 [ms]
[OGL LOG][Proc: 0]solve: 2164.46 [ms]
[OGL LOG][Proc: 0]copy_x_back: 8.153 [ms]
[OGL LOG][lduLduBase.H:380] 
Statistics:
	Time per iteration: 1351 [mu s]
	Time per iteration and DOF: 0.168875 [ns]
	Retrieve results bandwith 1.962000 [GByte/s]
nonehipGKOCG:  Solving for p, Initial residual = 0.509063, Final residual = 3.4714e-05, No Iterations 1601
linear solve p 2401462
time step continuity errors : sum local = 3.2272e-10, global = -3.85381e-23, cumulative = 7.09619e-22
[OGL LOG][Proc: 0]global_index_init: 0.024 [ms]
[OGL LOG][Proc: 0]global_index_init: 0.002 [ms]
[OGL LOG][Proc: 0]update_host_matrix_data: 162.668 [ms]
[OGL LOG][Proc: 0]gather_global_matrix: 0 [ms]
[OGL LOG][Proc: 0]generate_distributed_matrix: 41.077 [ms]
[OGL LOG][Proc: 0]init_precond: 0.045 [ms]
[OGL LOG][Proc: 0]generate_solver: 0.002 [ms]
[OGL LOG][Proc: 0]solve: 2167.37 [ms]
[OGL LOG][Proc: 0]copy_x_back: 9.89 [ms]
[OGL LOG][lduLduBase.H:380] 
Statistics:
	Time per iteration: 1353 [mu s]
	Time per iteration and DOF: 0.169125 [ns]
	Retrieve results bandwith 1.617000 [GByte/s]
nonehipGKOCG:  Solving for p, Initial residual = 0.419745, Final residual = 3.30513e-05, No Iterations 1601
linear solve p 2404594
time step continuity errors : sum local = 3.16762e-10, global = 6.64598e-23, cumulative = 7.76078e-22
ExecutionTime = 83.62 s  ClockTime = 84 s

Time = 0.00015

Courant Number mean: 0.00241164 max: 0.0810514
DILUPBiCGStab:  Solving for Ux, Initial residual = 0.0803497, Final residual = 1.52732e-05, No Iterations 5
DILUPBiCGStab:  Solving for Uy, Initial residual = 0.137289, Final residual = 5.32096e-06, No Iterations 5
DILUPBiCGStab:  Solving for Uz, Initial residual = 0.0898474, Final residual = 1.4035e-05, No Iterations 5
linear solve U 3224394
[OGL LOG][Proc: 0]global_index_init: 0.021 [ms]
[OGL LOG][Proc: 0]global_index_init: 0.001 [ms]
[OGL LOG][Proc: 0]update_host_matrix_data: 156.004 [ms]
[OGL LOG][Proc: 0]gather_global_matrix: 0 [ms]
[OGL LOG][Proc: 0]generate_distributed_matrix: 44.864 [ms]
[OGL LOG][Proc: 0]init_precond: 0.043 [ms]
[OGL LOG][Proc: 0]generate_solver: 0.003 [ms]
[OGL LOG][Proc: 0]solve: 2084.96 [ms]
[OGL LOG][Proc: 0]copy_x_back: 9.629 [ms]
[OGL LOG][lduLduBase.H:380] 
Statistics:
	Time per iteration: 1356 [mu s]
	Time per iteration and DOF: 0.169500 [ns]
	Retrieve results bandwith 1.661000 [GByte/s]
nonehipGKOCG:  Solving for p, Initial residual = 0.252453, Final residual = 8.51088e-05, No Iterations 1537
linear solve p 2317871
time step continuity errors : sum local = 6.11934e-10, global = 2.06728e-22, cumulative = 9.82806e-22
[OGL LOG][Proc: 0]global_index_init: 0.045 [ms]
[OGL LOG][Proc: 0]global_index_init: 0.001 [ms]
[OGL LOG][Proc: 0]update_host_matrix_data: 163.728 [ms]
[OGL LOG][Proc: 0]gather_global_matrix: 0 [ms]
[OGL LOG][Proc: 0]generate_distributed_matrix: 39.174 [ms]
[OGL LOG][Proc: 0]init_precond: 0.044 [ms]
[OGL LOG][Proc: 0]generate_solver: 0.002 [ms]
[OGL LOG][Proc: 0]solve: 2081.31 [ms]
[OGL LOG][Proc: 0]copy_x_back: 8.429 [ms]
[OGL LOG][lduLduBase.H:380] 
Statistics:
	Time per iteration: 1363 [mu s]
	Time per iteration and DOF: 0.170375 [ns]
	Retrieve results bandwith 1.898000 [GByte/s]
nonehipGKOCG:  Solving for p, Initial residual = 0.208829, Final residual = 9.91893e-05, No Iterations 1526
linear solve p 2316922
time step continuity errors : sum local = 7.05458e-10, global = 6.33428e-23, cumulative = 1.04615e-21
ExecutionTime = 94.08 s  ClockTime = 94 s

Time = 0.0002

Courant Number mean: 0.0029966 max: 0.0859676
DILUPBiCGStab:  Solving for Ux, Initial residual = 0.0511422, Final residual = 7.12145e-06, No Iterations 5
DILUPBiCGStab:  Solving for Uy, Initial residual = 0.0858833, Final residual = 3.10355e-06, No Iterations 5
DILUPBiCGStab:  Solving for Uz, Initial residual = 0.111297, Final residual = 9.11288e-06, No Iterations 5
linear solve U 3231663
[OGL LOG][Proc: 0]global_index_init: 0.012 [ms]
[OGL LOG][Proc: 0]global_index_init: 0.002 [ms]
[OGL LOG][Proc: 0]update_host_matrix_data: 159.672 [ms]
[OGL LOG][Proc: 0]gather_global_matrix: 0 [ms]
[OGL LOG][Proc: 0]generate_distributed_matrix: 40.578 [ms]
[OGL LOG][Proc: 0]init_precond: 0.044 [ms]
[OGL LOG][Proc: 0]generate_solver: 0.002 [ms]
[OGL LOG][Proc: 0]solve: 2078.36 [ms]
[OGL LOG][Proc: 0]copy_x_back: 9.931 [ms]
[OGL LOG][lduLduBase.H:380] 
Statistics:
	Time per iteration: 1361 [mu s]
	Time per iteration and DOF: 0.170125 [ns]
	Retrieve results bandwith 1.611000 [GByte/s]
nonehipGKOCG:  Solving for p, Initial residual = 0.122439, Final residual = 6.26112e-05, No Iterations 1526
linear solve p 2310627
time step continuity errors : sum local = 4.23168e-10, global = 1.17223e-22, cumulative = 1.16337e-21
[OGL LOG][Proc: 0]global_index_init: 0.02 [ms]
[OGL LOG][Proc: 0]global_index_init: 0.002 [ms]
[OGL LOG][Proc: 0]update_host_matrix_data: 157.872 [ms]
[OGL LOG][Proc: 0]gather_global_matrix: 0 [ms]
[OGL LOG][Proc: 0]generate_distributed_matrix: 38.913 [ms]
[OGL LOG][Proc: 0]init_precond: 0.046 [ms]
[OGL LOG][Proc: 0]generate_solver: 0.003 [ms]
[OGL LOG][Proc: 0]solve: 2076.06 [ms]
[OGL LOG][Proc: 0]copy_x_back: 12.116 [ms]
[OGL LOG][lduLduBase.H:380] 
Statistics:
	Time per iteration: 1360 [mu s]
	Time per iteration and DOF: 0.170000 [ns]
	Retrieve results bandwith 1.320000 [GByte/s]
nonehipGKOCG:  Solving for p, Initial residual = 0.0991554, Final residual = 5.22884e-05, No Iterations 1526
linear solve p 2305385
time step continuity errors : sum local = 3.57346e-10, global = 1.82213e-22, cumulative = 1.34558e-21
ExecutionTime = 104.55 s  ClockTime = 105 s

Time = 0.00025

Courant Number mean: 0.00346145 max: 0.088316
DILUPBiCGStab:  Solving for Ux, Initial residual = 0.0380462, Final residual = 4.12431e-06, No Iterations 5
DILUPBiCGStab:  Solving for Uy, Initial residual = 0.0619921, Final residual = 2.0459e-06, No Iterations 5
DILUPBiCGStab:  Solving for Uz, Initial residual = 0.0914404, Final residual = 4.51883e-06, No Iterations 5
linear solve U 3225948
[OGL LOG][Proc: 0]global_index_init: 0.026 [ms]
[OGL LOG][Proc: 0]global_index_init: 0.001 [ms]
[OGL LOG][Proc: 0]update_host_matrix_data: 158.409 [ms]
[OGL LOG][Proc: 0]gather_global_matrix: 0 [ms]
[OGL LOG][Proc: 0]generate_distributed_matrix: 41.313 [ms]
[OGL LOG][Proc: 0]init_precond: 0.045 [ms]
[OGL LOG][Proc: 0]generate_solver: 0.002 [ms]
[OGL LOG][Proc: 0]solve: 2072.14 [ms]
[OGL LOG][Proc: 0]copy_x_back: 8.314 [ms]
[OGL LOG][lduLduBase.H:380] 
Statistics:
	Time per iteration: 1357 [mu s]
	Time per iteration and DOF: 0.169625 [ns]
	Retrieve results bandwith 1.924000 [GByte/s]
nonehipGKOCG:  Solving for p, Initial residual = 0.0621053, Final residual = 4.2661e-05, No Iterations 1526
linear solve p 2304229
time step continuity errors : sum local = 2.8152e-10, global = -1.45225e-22, cumulative = 1.20036e-21
[OGL LOG][Proc: 0]global_index_init: 0.014 [ms]
[OGL LOG][Proc: 0]global_index_init: 0.002 [ms]
[OGL LOG][Proc: 0]update_host_matrix_data: 161.311 [ms]
[OGL LOG][Proc: 0]gather_global_matrix: 0 [ms]
[OGL LOG][Proc: 0]generate_distributed_matrix: 39.062 [ms]
[OGL LOG][Proc: 0]init_precond: 0.045 [ms]
[OGL LOG][Proc: 0]generate_solver: 0.002 [ms]
[OGL LOG][Proc: 0]solve: 2077.58 [ms]
[OGL LOG][Proc: 0]copy_x_back: 9.845 [ms]
[OGL LOG][lduLduBase.H:380] 
Statistics:
	Time per iteration: 1361 [mu s]
	Time per iteration and DOF: 0.170125 [ns]
	Retrieve results bandwith 1.625000 [GByte/s]
nonehipGKOCG:  Solving for p, Initial residual = 0.0522179, Final residual = 3.52944e-05, No Iterations 1526
linear solve p 2310410
time step continuity errors : sum local = 2.33263e-10, global = 2.07923e-22, cumulative = 1.40828e-21
ExecutionTime = 114.98 s  ClockTime = 115 s

Time = 0.0003

Courant Number mean: 0.00385434 max: 0.0897419
DILUPBiCGStab:  Solving for Ux, Initial residual = 0.0304956, Final residual = 2.53183e-06, No Iterations 5
DILUPBiCGStab:  Solving for Uy, Initial residual = 0.0485939, Final residual = 1.25815e-06, No Iterations 5
DILUPBiCGStab:  Solving for Uz, Initial residual = 0.076683, Final residual = 2.78451e-06, No Iterations 5
linear solve U 3223684
[OGL LOG][Proc: 0]global_index_init: 0.038 [ms]
[OGL LOG][Proc: 0]global_index_init: 0.001 [ms]
[OGL LOG][Proc: 0]update_host_matrix_data: 159.684 [ms]
[OGL LOG][Proc: 0]gather_global_matrix: 0 [ms]
[OGL LOG][Proc: 0]generate_distributed_matrix: 41.602 [ms]
[OGL LOG][Proc: 0]init_precond: 0.045 [ms]
[OGL LOG][Proc: 0]generate_solver: 0.002 [ms]
[OGL LOG][Proc: 0]solve: 2003.79 [ms]
[OGL LOG][Proc: 0]copy_x_back: 8.088 [ms]
[OGL LOG][lduLduBase.H:380] 
Statistics:
	Time per iteration: 1367 [mu s]
	Time per iteration and DOF: 0.170875 [ns]
	Retrieve results bandwith 1.978000 [GByte/s]
nonehipGKOCG:  Solving for p, Initial residual = 0.0392463, Final residual = 8.89357e-05, No Iterations 1465
linear solve p 2236851
time step continuity errors : sum local = 5.81703e-10, global = 1.02401e-22, cumulative = 1.51068e-21
[OGL LOG][Proc: 0]global_index_init: 0.016 [ms]
[OGL LOG][Proc: 0]global_index_init: 0.002 [ms]
[OGL LOG][Proc: 0]update_host_matrix_data: 157.949 [ms]
[OGL LOG][Proc: 0]gather_global_matrix: 0 [ms]
[OGL LOG][Proc: 0]generate_distributed_matrix: 39.033 [ms]
[OGL LOG][Proc: 0]init_precond: 0.045 [ms]
[OGL LOG][Proc: 0]generate_solver: 0.002 [ms]
[OGL LOG][Proc: 0]solve: 1994.79 [ms]
[OGL LOG][Proc: 0]copy_x_back: 9.063 [ms]
[OGL LOG][lduLduBase.H:380] 
Statistics:
	Time per iteration: 1374 [mu s]
	Time per iteration and DOF: 0.171750 [ns]
	Retrieve results bandwith 1.765000 [GByte/s]
nonehipGKOCG:  Solving for p, Initial residual = 0.0331958, Final residual = 9.74677e-05, No Iterations 1451
linear solve p 2223804
time step continuity errors : sum local = 6.40258e-10, global = -1.31244e-22, cumulative = 1.37944e-21
ExecutionTime = 125.24 s  ClockTime = 126 s

Time = 0.00035

Courant Number mean: 0.0041985 max: 0.0907274
DILUPBiCGStab:  Solving for Ux, Initial residual = 0.0255226, Final residual = 1.78747e-06, No Iterations 5
DILUPBiCGStab:  Solving for Uy, Initial residual = 0.0399275, Final residual = 9.04565e-07, No Iterations 5
DILUPBiCGStab:  Solving for Uz, Initial residual = 0.0657521, Final residual = 1.87337e-06, No Iterations 5
linear solve U 3225526
[OGL LOG][Proc: 0]global_index_init: 0.025 [ms]
[OGL LOG][Proc: 0]global_index_init: 0.002 [ms]
[OGL LOG][Proc: 0]update_host_matrix_data: 160.276 [ms]
[OGL LOG][Proc: 0]gather_global_matrix: 0 [ms]
[OGL LOG][Proc: 0]generate_distributed_matrix: 43.464 [ms]
[OGL LOG][Proc: 0]init_precond: 0.044 [ms]
[OGL LOG][Proc: 0]generate_solver: 0.002 [ms]
[OGL LOG][Proc: 0]solve: 1989.38 [ms]
[OGL LOG][Proc: 0]copy_x_back: 9.461 [ms]
[OGL LOG][lduLduBase.H:380] 
Statistics:
	Time per iteration: 1371 [mu s]
	Time per iteration and DOF: 0.171375 [ns]
	Retrieve results bandwith 1.691000 [GByte/s]
nonehipGKOCG:  Solving for p, Initial residual = 0.0289125, Final residual = 8.17107e-05, No Iterations 1451
linear solve p 2224964
time step continuity errors : sum local = 5.36176e-10, global = 2.46677e-22, cumulative = 1.62612e-21
[OGL LOG][Proc: 0]global_index_init: 0.018 [ms]
[OGL LOG][Proc: 0]global_index_init: 0.002 [ms]
[OGL LOG][Proc: 0]update_host_matrix_data: 159.2 [ms]
[OGL LOG][Proc: 0]gather_global_matrix: 0 [ms]
[OGL LOG][Proc: 0]generate_distributed_matrix: 39.024 [ms]
[OGL LOG][Proc: 0]init_precond: 0.045 [ms]
[OGL LOG][Proc: 0]generate_solver: 0.002 [ms]
[OGL LOG][Proc: 0]solve: 2009.34 [ms]
[OGL LOG][Proc: 0]copy_x_back: 12.273 [ms]
[OGL LOG][lduLduBase.H:380] 
Statistics:
	Time per iteration: 1384 [mu s]
	Time per iteration and DOF: 0.173000 [ns]
	Retrieve results bandwith 1.303000 [GByte/s]
nonehipGKOCG:  Solving for p, Initial residual = 0.0251, Final residual = 6.80746e-05, No Iterations 1451
linear solve p 2242499
time step continuity errors : sum local = 4.47533e-10, global = 3.51795e-22, cumulative = 1.97791e-21
ExecutionTime = 135.54 s  ClockTime = 136 s

Time = 0.0004

Courant Number mean: 0.00450629 max: 0.0914618
DILUPBiCGStab:  Solving for Ux, Initial residual = 0.0219746, Final residual = 1.39497e-06, No Iterations 5
DILUPBiCGStab:  Solving for Uy, Initial residual = 0.0338742, Final residual = 6.59157e-07, No Iterations 5
DILUPBiCGStab:  Solving for Uz, Initial residual = 0.057794, Final residual = 1.42411e-06, No Iterations 5
linear solve U 3229466
[OGL LOG][Proc: 0]global_index_init: 0.027 [ms]
[OGL LOG][Proc: 0]global_index_init: 0.002 [ms]
[OGL LOG][Proc: 0]update_host_matrix_data: 160.175 [ms]
[OGL LOG][Proc: 0]gather_global_matrix: 0 [ms]
[OGL LOG][Proc: 0]generate_distributed_matrix: 40.801 [ms]
[OGL LOG][Proc: 0]init_precond: 0.043 [ms]
[OGL LOG][Proc: 0]generate_solver: 0.002 [ms]
[OGL LOG][Proc: 0]solve: 1991.92 [ms]
[OGL LOG][Proc: 0]copy_x_back: 13.112 [ms]
[OGL LOG][lduLduBase.H:380] 
Statistics:
	Time per iteration: 1372 [mu s]
	Time per iteration and DOF: 0.171500 [ns]
	Retrieve results bandwith 1.220000 [GByte/s]
nonehipGKOCG:  Solving for p, Initial residual = 0.0215065, Final residual = 7.98241e-05, No Iterations 1451
linear solve p 2228424
time step continuity errors : sum local = 5.24761e-10, global = -8.7233e-23, cumulative = 1.89068e-21
[OGL LOG][Proc: 0]global_index_init: 0.013 [ms]
[OGL LOG][Proc: 0]global_index_init: 0.002 [ms]
[OGL LOG][Proc: 0]update_host_matrix_data: 159.661 [ms]
[OGL LOG][Proc: 0]gather_global_matrix: 0 [ms]
[OGL LOG][Proc: 0]generate_distributed_matrix: 39.253 [ms]
[OGL LOG][Proc: 0]init_precond: 0.044 [ms]
[OGL LOG][Proc: 0]generate_solver: 0.002 [ms]
[OGL LOG][Proc: 0]solve: 1983.66 [ms]
[OGL LOG][Proc: 0]copy_x_back: 9.056 [ms]
[OGL LOG][lduLduBase.H:380] 
Statistics:
	Time per iteration: 1367 [mu s]
	Time per iteration and DOF: 0.170875 [ns]
	Retrieve results bandwith 1.766000 [GByte/s]
nonehipGKOCG:  Solving for p, Initial residual = 0.0190183, Final residual = 6.00399e-05, No Iterations 1451
linear solve p 2216057
time step continuity errors : sum local = 3.95524e-10, global = 2.59645e-22, cumulative = 2.15032e-21
ExecutionTime = 145.83 s  ClockTime = 146 s

Time = 0.00045

Courant Number mean: 0.00478573 max: 0.0920367
DILUPBiCGStab:  Solving for Ux, Initial residual = 0.0193074, Final residual = 1.14746e-06, No Iterations 5
DILUPBiCGStab:  Solving for Uy, Initial residual = 0.0293941, Final residual = 5.29236e-07, No Iterations 5
DILUPBiCGStab:  Solving for Uz, Initial residual = 0.0512574, Final residual = 1.14376e-06, No Iterations 5
linear solve U 3237573
[OGL LOG][Proc: 0]global_index_init: 0.009 [ms]
[OGL LOG][Proc: 0]global_index_init: 0.002 [ms]
[OGL LOG][Proc: 0]update_host_matrix_data: 159.472 [ms]
[OGL LOG][Proc: 0]gather_global_matrix: 0 [ms]
[OGL LOG][Proc: 0]generate_distributed_matrix: 41.715 [ms]
[OGL LOG][Proc: 0]init_precond: 0.045 [ms]
[OGL LOG][Proc: 0]generate_solver: 0.002 [ms]
[OGL LOG][Proc: 0]solve: 1985.05 [ms]
[OGL LOG][Proc: 0]copy_x_back: 8.367 [ms]
[OGL LOG][lduLduBase.H:380] 
Statistics:
	Time per iteration: 1368 [mu s]
	Time per iteration and DOF: 0.171000 [ns]
	Retrieve results bandwith 1.912000 [GByte/s]
nonehipGKOCG:  Solving for p, Initial residual = 0.0178777, Final residual = 6.30078e-05, No Iterations 1451
linear solve p 2221669
time step continuity errors : sum local = 4.1526e-10, global = -1.71566e-22, cumulative = 1.97876e-21
[OGL LOG][Proc: 0]global_index_init: 0.013 [ms]
[OGL LOG][Proc: 0]global_index_init: 0.002 [ms]
[OGL LOG][Proc: 0]update_host_matrix_data: 159.907 [ms]
[OGL LOG][Proc: 0]gather_global_matrix: 0 [ms]
[OGL LOG][Proc: 0]generate_distributed_matrix: 38.895 [ms]
[OGL LOG][Proc: 0]init_precond: 0.053 [ms]
[OGL LOG][Proc: 0]generate_solver: 0.002 [ms]
[OGL LOG][Proc: 0]solve: 1988 [ms]
[OGL LOG][Proc: 0]copy_x_back: 11.915 [ms]
[OGL LOG][lduLduBase.H:380] 
Statistics:
	Time per iteration: 1370 [mu s]
	Time per iteration and DOF: 0.171250 [ns]
	Retrieve results bandwith 1.342000 [GByte/s]
nonehipGKOCG:  Solving for p, Initial residual = 0.0159174, Final residual = 4.71809e-05, No Iterations 1451
linear solve p 2219334
time step continuity errors : sum local = 3.11393e-10, global = 9.33067e-23, cumulative = 2.07206e-21
ExecutionTime = 156.1 s  ClockTime = 157 s

Time = 0.0005

Courant Number mean: 0.00504296 max: 0.0925025
DILUPBiCGStab:  Solving for Ux, Initial residual = 0.0172234, Final residual = 9.84007e-07, No Iterations 5
DILUPBiCGStab:  Solving for Uy, Initial residual = 0.0259478, Final residual = 4.44984e-07, No Iterations 5
DILUPBiCGStab:  Solving for Uz, Initial residual = 0.0461494, Final residual = 9.53288e-07, No Iterations 5
linear solve U 3227391
[OGL LOG][Proc: 0]global_index_init: 0.024 [ms]
[OGL LOG][Proc: 0]global_index_init: 0.001 [ms]
[OGL LOG][Proc: 0]update_host_matrix_data: 161.354 [ms]
[OGL LOG][Proc: 0]gather_global_matrix: 0 [ms]
[OGL LOG][Proc: 0]generate_distributed_matrix: 41.426 [ms]
[OGL LOG][Proc: 0]init_precond: 0.043 [ms]
[OGL LOG][Proc: 0]generate_solver: 0.002 [ms]
[OGL LOG][Proc: 0]solve: 1990.09 [ms]
[OGL LOG][Proc: 0]copy_x_back: 9.59 [ms]
[OGL LOG][lduLduBase.H:380] 
Statistics:
	Time per iteration: 1371 [mu s]
	Time per iteration and DOF: 0.171375 [ns]
	Retrieve results bandwith 1.668000 [GByte/s]
nonehipGKOCG:  Solving for p, Initial residual = 0.0149395, Final residual = 5.53626e-05, No Iterations 1451
linear solve p 2224822
time step continuity errors : sum local = 3.65611e-10, global = 1.24546e-22, cumulative = 2.19661e-21
[OGL LOG][Proc: 0]global_index_init: 0.042 [ms]
[OGL LOG][Proc: 0]global_index_init: 0.002 [ms]
[OGL LOG][Proc: 0]update_host_matrix_data: 158.737 [ms]
[OGL LOG][Proc: 0]gather_global_matrix: 0 [ms]
[OGL LOG][Proc: 0]generate_distributed_matrix: 39.03 [ms]
[OGL LOG][Proc: 0]init_precond: 0.044 [ms]
[OGL LOG][Proc: 0]generate_solver: 0.002 [ms]
[OGL LOG][Proc: 0]solve: 1931.59 [ms]
[OGL LOG][Proc: 0]copy_x_back: 9.598 [ms]
[OGL LOG][lduLduBase.H:380] 
Statistics:
	Time per iteration: 1386 [mu s]
	Time per iteration and DOF: 0.173250 [ns]
	Retrieve results bandwith 1.667000 [GByte/s]
nonehipGKOCG:  Solving for p, Initial residual = 0.0133834, Final residual = 9.61127e-05, No Iterations 1393
linear solve p 2161500
time step continuity errors : sum local = 6.356e-10, global = 1.90587e-22, cumulative = 2.3872e-21
ExecutionTime = 166.34 s  ClockTime = 167 s

Time = 0.00055

Courant Number mean: 0.00528118 max: 0.0928899
DILUPBiCGStab:  Solving for Ux, Initial residual = 0.0155463, Final residual = 8.70801e-07, No Iterations 5
DILUPBiCGStab:  Solving for Uy, Initial residual = 0.0232126, Final residual = 3.94631e-07, No Iterations 5
DILUPBiCGStab:  Solving for Uz, Initial residual = 0.0417965, Final residual = 8.24931e-07, No Iterations 5
linear solve U 3217303
[OGL LOG][Proc: 0]global_index_init: 0.014 [ms]
[OGL LOG][Proc: 0]global_index_init: 0.001 [ms]
[OGL LOG][Proc: 0]update_host_matrix_data: 160.738 [ms]
[OGL LOG][Proc: 0]gather_global_matrix: 0 [ms]
[OGL LOG][Proc: 0]generate_distributed_matrix: 41.642 [ms]
[OGL LOG][Proc: 0]init_precond: 0.044 [ms]
[OGL LOG][Proc: 0]generate_solver: 0.002 [ms]
[OGL LOG][Proc: 0]solve: 1965.45 [ms]
[OGL LOG][Proc: 0]copy_x_back: 8.889 [ms]
[OGL LOG][lduLduBase.H:380] 
Statistics:
	Time per iteration: 1373 [mu s]
	Time per iteration and DOF: 0.171625 [ns]
	Retrieve results bandwith 1.799000 [GByte/s]
nonehipGKOCG:  Solving for p, Initial residual = 0.0130328, Final residual = 6.21268e-05, No Iterations 1431
linear solve p 2199938
time step continuity errors : sum local = 4.11093e-10, global = 4.26595e-22, cumulative = 2.81379e-21
[OGL LOG][Proc: 0]global_index_init: 0.01 [ms]
[OGL LOG][Proc: 0]global_index_init: 0.002 [ms]
[OGL LOG][Proc: 0]update_host_matrix_data: 160.123 [ms]
[OGL LOG][Proc: 0]gather_global_matrix: 0 [ms]
[OGL LOG][Proc: 0]generate_distributed_matrix: 41.606 [ms]
[OGL LOG][Proc: 0]init_precond: 0.044 [ms]
[OGL LOG][Proc: 0]generate_solver: 0.002 [ms]
[OGL LOG][Proc: 0]solve: 1956.82 [ms]
[OGL LOG][Proc: 0]copy_x_back: 8.356 [ms]
[OGL LOG][lduLduBase.H:380] 
Statistics:
	Time per iteration: 1372 [mu s]
	Time per iteration and DOF: 0.171500 [ns]
	Retrieve results bandwith 1.914000 [GByte/s]
nonehipGKOCG:  Solving for p, Initial residual = 0.0116865, Final residual = 6.23125e-05, No Iterations 1426
linear solve p 2191069
time step continuity errors : sum local = 4.12747e-10, global = 3.03214e-22, cumulative = 3.11701e-21
ExecutionTime = 176.53 s  ClockTime = 177 s

Time = 0.0006

Courant Number mean: 0.00550393 max: 0.0932187
DILUPBiCGStab:  Solving for Ux, Initial residual = 0.0141661, Final residual = 8.04754e-07, No Iterations 5
DILUPBiCGStab:  Solving for Uy, Initial residual = 0.0209898, Final residual = 3.53473e-07, No Iterations 5
DILUPBiCGStab:  Solving for Uz, Initial residual = 0.0383226, Final residual = 7.1271e-07, No Iterations 5
linear solve U 3223457
[OGL LOG][Proc: 0]global_index_init: 0.024 [ms]
[OGL LOG][Proc: 0]global_index_init: 0.001 [ms]
[OGL LOG][Proc: 0]update_host_matrix_data: 159.458 [ms]
[OGL LOG][Proc: 0]gather_global_matrix: 0 [ms]
[OGL LOG][Proc: 0]generate_distributed_matrix: 40.959 [ms]
[OGL LOG][Proc: 0]init_precond: 0.043 [ms]
[OGL LOG][Proc: 0]generate_solver: 0.002 [ms]
[OGL LOG][Proc: 0]solve: 1967 [ms]
[OGL LOG][Proc: 0]copy_x_back: 9.249 [ms]
[OGL LOG][lduLduBase.H:380] 
Statistics:
	Time per iteration: 1379 [mu s]
	Time per iteration and DOF: 0.172375 [ns]
	Retrieve results bandwith 1.729000 [GByte/s]
nonehipGKOCG:  Solving for p, Initial residual = 0.0114545, Final residual = 6.70006e-05, No Iterations 1426
linear solve p 2200216
time step continuity errors : sum local = 4.44081e-10, global = 4.00821e-22, cumulative = 3.51783e-21
[OGL LOG][Proc: 0]global_index_init: 0.029 [ms]
[OGL LOG][Proc: 0]global_index_init: 0.002 [ms]
[OGL LOG][Proc: 0]update_host_matrix_data: 158.44 [ms]
[OGL LOG][Proc: 0]gather_global_matrix: 0 [ms]
[OGL LOG][Proc: 0]generate_distributed_matrix: 39.186 [ms]
[OGL LOG][Proc: 0]init_precond: 0.047 [ms]
[OGL LOG][Proc: 0]generate_solver: 0.002 [ms]
[OGL LOG][Proc: 0]solve: 1967.15 [ms]
[OGL LOG][Proc: 0]copy_x_back: 9.608 [ms]
[OGL LOG][lduLduBase.H:380] 
Statistics:
	Time per iteration: 1379 [mu s]
	Time per iteration and DOF: 0.172375 [ns]
	Retrieve results bandwith 1.665000 [GByte/s]
nonehipGKOCG:  Solving for p, Initial residual = 0.0103116, Final residual = 5.14919e-05, No Iterations 1426
linear solve p 2198120
time step continuity errors : sum local = 3.41606e-10, global = 4.39183e-22, cumulative = 3.95701e-21
ExecutionTime = 186.69 s  ClockTime = 187 s

Time = 0.00065

Courant Number mean: 0.00571312 max: 0.0935022
DILUPBiCGStab:  Solving for Ux, Initial residual = 0.0130114, Final residual = 7.46746e-07, No Iterations 5
DILUPBiCGStab:  Solving for Uy, Initial residual = 0.0191476, Final residual = 3.21518e-07, No Iterations 5
DILUPBiCGStab:  Solving for Uz, Initial residual = 0.0353048, Final residual = 6.26798e-07, No Iterations 5
linear solve U 3225074
[OGL LOG][Proc: 0]global_index_init: 0.014 [ms]
[OGL LOG][Proc: 0]global_index_init: 0.002 [ms]
[OGL LOG][Proc: 0]update_host_matrix_data: 159.237 [ms]
[OGL LOG][Proc: 0]gather_global_matrix: 0 [ms]
[OGL LOG][Proc: 0]generate_distributed_matrix: 41.488 [ms]
[OGL LOG][Proc: 0]init_precond: 0.044 [ms]
[OGL LOG][Proc: 0]generate_solver: 0.002 [ms]
[OGL LOG][Proc: 0]solve: 1969.99 [ms]
[OGL LOG][Proc: 0]copy_x_back: 7.463 [ms]
[OGL LOG][lduLduBase.H:380] 
Statistics:
	Time per iteration: 1381 [mu s]
	Time per iteration and DOF: 0.172625 [ns]
	Retrieve results bandwith 2.143000 [GByte/s]
nonehipGKOCG:  Solving for p, Initial residual = 0.0101516, Final residual = 5.81417e-05, No Iterations 1426
linear solve p 2203154
time step continuity errors : sum local = 3.85925e-10, global = -1.38845e-22, cumulative = 3.81817e-21
[OGL LOG][Proc: 0]global_index_init: 0.023 [ms]
[OGL LOG][Proc: 0]global_index_init: 0.001 [ms]
[OGL LOG][Proc: 0]update_host_matrix_data: 160.999 [ms]
[OGL LOG][Proc: 0]gather_global_matrix: 0 [ms]
[OGL LOG][Proc: 0]generate_distributed_matrix: 38.855 [ms]
[OGL LOG][Proc: 0]init_precond: 0.044 [ms]
[OGL LOG][Proc: 0]generate_solver: 0.003 [ms]
[OGL LOG][Proc: 0]solve: 1958.88 [ms]
[OGL LOG][Proc: 0]copy_x_back: 9.41 [ms]
[OGL LOG][lduLduBase.H:380] 
Statistics:
	Time per iteration: 1373 [mu s]
	Time per iteration and DOF: 0.171625 [ns]
	Retrieve results bandwith 1.700000 [GByte/s]
nonehipGKOCG:  Solving for p, Initial residual = 0.0091619, Final residual = 4.71985e-05, No Iterations 1426
linear solve p 2190858
time step continuity errors : sum local = 3.13541e-10, global = -5.82872e-24, cumulative = 3.81234e-21
ExecutionTime = 196.82 s  ClockTime = 198 s

Time = 0.0007

Courant Number mean: 0.00591034 max: 0.09375
DILUPBiCGStab:  Solving for Ux, Initial residual = 0.0120285, Final residual = 6.94882e-07, No Iterations 5
DILUPBiCGStab:  Solving for Uy, Initial residual = 0.0175961, Final residual = 2.94525e-07, No Iterations 5
DILUPBiCGStab:  Solving for Uz, Initial residual = 0.0327343, Final residual = 5.5689e-07, No Iterations 5
linear solve U 3220521
[OGL LOG][Proc: 0]global_index_init: 0.025 [ms]
[OGL LOG][Proc: 0]global_index_init: 0.001 [ms]
[OGL LOG][Proc: 0]update_host_matrix_data: 161.082 [ms]
[OGL LOG][Proc: 0]gather_global_matrix: 0 [ms]
[OGL LOG][Proc: 0]generate_distributed_matrix: 41.889 [ms]
[OGL LOG][Proc: 0]init_precond: 0.044 [ms]
[OGL LOG][Proc: 0]generate_solver: 0.002 [ms]
[OGL LOG][Proc: 0]solve: 1956.76 [ms]
[OGL LOG][Proc: 0]copy_x_back: 12.659 [ms]
[OGL LOG][lduLduBase.H:380] 
Statistics:
	Time per iteration: 1372 [mu s]
	Time per iteration and DOF: 0.171500 [ns]
	Retrieve results bandwith 1.263000 [GByte/s]
nonehipGKOCG:  Solving for p, Initial residual = 0.00909792, Final residual = 5.08994e-05, No Iterations 1426
linear solve p 2192348
time step continuity errors : sum local = 3.38301e-10, global = 2.05099e-22, cumulative = 4.01744e-21
[OGL LOG][Proc: 0]global_index_init: 0.014 [ms]
[OGL LOG][Proc: 0]global_index_init: 0.002 [ms]
[OGL LOG][Proc: 0]update_host_matrix_data: 158.17 [ms]
[OGL LOG][Proc: 0]gather_global_matrix: 0 [ms]
[OGL LOG][Proc: 0]generate_distributed_matrix: 39.021 [ms]
[OGL LOG][Proc: 0]init_precond: 0.044 [ms]
[OGL LOG][Proc: 0]generate_solver: 0.003 [ms]
[OGL LOG][Proc: 0]solve: 1959.56 [ms]
[OGL LOG][Proc: 0]copy_x_back: 8.988 [ms]
[OGL LOG][lduLduBase.H:380] 
Statistics:
	Time per iteration: 1374 [mu s]
	Time per iteration and DOF: 0.171750 [ns]
	Retrieve results bandwith 1.780000 [GByte/s]
nonehipGKOCG:  Solving for p, Initial residual = 0.00821623, Final residual = 4.03365e-05, No Iterations 1426
linear solve p 2188709
time step continuity errors : sum local = 2.68288e-10, global = -3.88014e-23, cumulative = 3.97863e-21
ExecutionTime = 207.01 s  ClockTime = 208 s

Time = 0.00075

Courant Number mean: 0.00609762 max: 0.0939689
DILUPBiCGStab:  Solving for Ux, Initial residual = 0.0111818, Final residual = 6.47398e-07, No Iterations 5
DILUPBiCGStab:  Solving for Uy, Initial residual = 0.0162716, Final residual = 2.71977e-07, No Iterations 5
DILUPBiCGStab:  Solving for Uz, Initial residual = 0.0305059, Final residual = 4.98216e-07, No Iterations 5
linear solve U 3222845
[OGL LOG][Proc: 0]global_index_init: 0.026 [ms]
[OGL LOG][Proc: 0]global_index_init: 0.002 [ms]
[OGL LOG][Proc: 0]update_host_matrix_data: 159.086 [ms]
[OGL LOG][Proc: 0]gather_global_matrix: 0 [ms]
[OGL LOG][Proc: 0]generate_distributed_matrix: 41.486 [ms]
[OGL LOG][Proc: 0]init_precond: 0.043 [ms]
[OGL LOG][Proc: 0]generate_solver: 0.003 [ms]
[OGL LOG][Proc: 0]solve: 1972.21 [ms]
[OGL LOG][Proc: 0]copy_x_back: 8.861 [ms]
[OGL LOG][lduLduBase.H:380] 
Statistics:
	Time per iteration: 1383 [mu s]
	Time per iteration and DOF: 0.172875 [ns]
	Retrieve results bandwith 1.805000 [GByte/s]
nonehipGKOCG:  Solving for p, Initial residual = 0.00821702, Final residual = 4.45776e-05, No Iterations 1426
linear solve p 2204749
time step continuity errors : sum local = 2.96641e-10, global = -1.39732e-22, cumulative = 3.8389e-21
[OGL LOG][Proc: 0]global_index_init: 0.015 [ms]
[OGL LOG][Proc: 0]global_index_init: 0.002 [ms]
[OGL LOG][Proc: 0]update_host_matrix_data: 160.539 [ms]
[OGL LOG][Proc: 0]gather_global_matrix: 0 [ms]
[OGL LOG][Proc: 0]generate_distributed_matrix: 39.054 [ms]
[OGL LOG][Proc: 0]init_precond: 0.044 [ms]
[OGL LOG][Proc: 0]generate_solver: 0.003 [ms]
[OGL LOG][Proc: 0]solve: 1893.54 [ms]
[OGL LOG][Proc: 0]copy_x_back: 9.414 [ms]
[OGL LOG][lduLduBase.H:380] 
Statistics:
	Time per iteration: 1383 [mu s]
	Time per iteration and DOF: 0.172875 [ns]
	Retrieve results bandwith 1.699000 [GByte/s]
nonehipGKOCG:  Solving for p, Initial residual = 0.00743021, Final residual = 9.51124e-05, No Iterations 1369
linear solve p 2125262
time step continuity errors : sum local = 6.33389e-10, global = 6.01619e-23, cumulative = 3.89906e-21
ExecutionTime = 217.11 s  ClockTime = 218 s

Time = 0.0008

Courant Number mean: 0.00627538 max: 0.0941642
DILUPBiCGStab:  Solving for Ux, Initial residual = 0.0104453, Final residual = 6.03315e-07, No Iterations 5
DILUPBiCGStab:  Solving for Uy, Initial residual = 0.015128, Final residual = 2.52262e-07, No Iterations 5
DILUPBiCGStab:  Solving for Uz, Initial residual = 0.0285262, Final residual = 4.52587e-07, No Iterations 5
linear solve U 3221545
[OGL LOG][Proc: 0]global_index_init: 0.016 [ms]
[OGL LOG][Proc: 0]global_index_init: 0.002 [ms]
[OGL LOG][Proc: 0]update_host_matrix_data: 161.169 [ms]
[OGL LOG][Proc: 0]gather_global_matrix: 0 [ms]
[OGL LOG][Proc: 0]generate_distributed_matrix: 41.344 [ms]
[OGL LOG][Proc: 0]init_precond: 0.042 [ms]
[OGL LOG][Proc: 0]generate_solver: 0.002 [ms]
[OGL LOG][Proc: 0]solve: 1933.71 [ms]
[OGL LOG][Proc: 0]copy_x_back: 9.468 [ms]
[OGL LOG][lduLduBase.H:380] 
Statistics:
	Time per iteration: 1376 [mu s]
	Time per iteration and DOF: 0.172000 [ns]
	Retrieve results bandwith 1.689000 [GByte/s]
nonehipGKOCG:  Solving for p, Initial residual = 0.00761389, Final residual = 3.59123e-05, No Iterations 1405
linear solve p 2168112
time step continuity errors : sum local = 2.39283e-10, global = 1.10159e-22, cumulative = 4.00922e-21
[OGL LOG][Proc: 0]global_index_init: 0.015 [ms]
[OGL LOG][Proc: 0]global_index_init: 0.002 [ms]
[OGL LOG][Proc: 0]update_host_matrix_data: 158.786 [ms]
[OGL LOG][Proc: 0]gather_global_matrix: 0 [ms]
[OGL LOG][Proc: 0]generate_distributed_matrix: 42.876 [ms]
[OGL LOG][Proc: 0]init_precond: 0.046 [ms]
[OGL LOG][Proc: 0]generate_solver: 0.003 [ms]
[OGL LOG][Proc: 0]solve: 1931.67 [ms]
[OGL LOG][Proc: 0]copy_x_back: 13.186 [ms]
[OGL LOG][lduLduBase.H:380] 
Statistics:
	Time per iteration: 1378 [mu s]
	Time per iteration and DOF: 0.172250 [ns]
	Retrieve results bandwith 1.213000 [GByte/s]
nonehipGKOCG:  Solving for p, Initial residual = 0.00685934, Final residual = 3.29898e-05, No Iterations 1401
linear solve p 2167555
time step continuity errors : sum local = 2.1993e-10, global = -1.85133e-22, cumulative = 3.82409e-21
ExecutionTime = 227.25 s  ClockTime = 228 s

Time = 0.00085

Courant Number mean: 0.00644514 max: 0.0943398
DILUPBiCGStab:  Solving for Ux, Initial residual = 0.00979746, Final residual = 5.6251e-07, No Iterations 5
DILUPBiCGStab:  Solving for Uy, Initial residual = 0.0141302, Final residual = 2.34916e-07, No Iterations 5
DILUPBiCGStab:  Solving for Uz, Initial residual = 0.0267982, Final residual = 4.08848e-07, No Iterations 5
linear solve U 3220639
[OGL LOG][Proc: 0]global_index_init: 0.017 [ms]
[OGL LOG][Proc: 0]global_index_init: 0.001 [ms]
[OGL LOG][Proc: 0]update_host_matrix_data: 160.884 [ms]
[OGL LOG][Proc: 0]gather_global_matrix: 0 [ms]
[OGL LOG][Proc: 0]generate_distributed_matrix: 42.344 [ms]
[OGL LOG][Proc: 0]init_precond: 0.047 [ms]
[OGL LOG][Proc: 0]generate_solver: 0.002 [ms]
[OGL LOG][Proc: 0]solve: 1937.92 [ms]
[OGL LOG][Proc: 0]copy_x_back: 12.309 [ms]
[OGL LOG][lduLduBase.H:380] 
Statistics:
	Time per iteration: 1383 [mu s]
	Time per iteration and DOF: 0.172875 [ns]
	Retrieve results bandwith 1.299000 [GByte/s]
nonehipGKOCG:  Solving for p, Initial residual = 0.00690051, Final residual = 4.142e-05, No Iterations 1401
linear solve p 2176610
time step continuity errors : sum local = 2.76239e-10, global = -5.71829e-23, cumulative = 3.76691e-21
[OGL LOG][Proc: 0]global_index_init: 0.014 [ms]
[OGL LOG][Proc: 0]global_index_init: 0.005 [ms]
[OGL LOG][Proc: 0]update_host_matrix_data: 159.723 [ms]
[OGL LOG][Proc: 0]gather_global_matrix: 0 [ms]
[OGL LOG][Proc: 0]generate_distributed_matrix: 38.779 [ms]
[OGL LOG][Proc: 0]init_precond: 0.046 [ms]
[OGL LOG][Proc: 0]generate_solver: 0.002 [ms]
[OGL LOG][Proc: 0]solve: 1928.21 [ms]
[OGL LOG][Proc: 0]copy_x_back: 9.302 [ms]
[OGL LOG][lduLduBase.H:380] 
Statistics:
	Time per iteration: 1376 [mu s]
	Time per iteration and DOF: 0.172000 [ns]
	Retrieve results bandwith 1.720000 [GByte/s]
nonehipGKOCG:  Solving for p, Initial residual = 0.00624351, Final residual = 3.05737e-05, No Iterations 1401
linear solve p 2158746
time step continuity errors : sum local = 2.0401e-10, global = 5.76885e-23, cumulative = 3.8246e-21
ExecutionTime = 237.37 s  ClockTime = 238 s

Time = 0.0009

Courant Number mean: 0.00660769 max: 0.0944988
DILUPBiCGStab:  Solving for Ux, Initial residual = 0.00922441, Final residual = 5.24935e-07, No Iterations 5
DILUPBiCGStab:  Solving for Uy, Initial residual = 0.0132524, Final residual = 2.19511e-07, No Iterations 5
DILUPBiCGStab:  Solving for Uz, Initial residual = 0.0252787, Final residual = 3.72709e-07, No Iterations 5
linear solve U 3218689
[OGL LOG][Proc: 0]global_index_init: 0.013 [ms]
[OGL LOG][Proc: 0]global_index_init: 0.002 [ms]
[OGL LOG][Proc: 0]update_host_matrix_data: 160.332 [ms]
[OGL LOG][Proc: 0]gather_global_matrix: 0 [ms]
[OGL LOG][Proc: 0]generate_distributed_matrix: 41.366 [ms]
[OGL LOG][Proc: 0]init_precond: 0.042 [ms]
[OGL LOG][Proc: 0]generate_solver: 0.002 [ms]
[OGL LOG][Proc: 0]solve: 1927.82 [ms]
[OGL LOG][Proc: 0]copy_x_back: 8.893 [ms]
[OGL LOG][lduLduBase.H:380] 
Statistics:
	Time per iteration: 1376 [mu s]
	Time per iteration and DOF: 0.172000 [ns]
	Retrieve results bandwith 1.799000 [GByte/s]
nonehipGKOCG:  Solving for p, Initial residual = 0.00634487, Final residual = 3.45244e-05, No Iterations 1401
linear solve p 2160857
time step continuity errors : sum local = 2.30456e-10, global = -4.87176e-23, cumulative = 3.77588e-21
[OGL LOG][Proc: 0]global_index_init: 0.022 [ms]
[OGL LOG][Proc: 0]global_index_init: 0.002 [ms]
[OGL LOG][Proc: 0]update_host_matrix_data: 158.997 [ms]
[OGL LOG][Proc: 0]gather_global_matrix: 0 [ms]
[OGL LOG][Proc: 0]generate_distributed_matrix: 39.006 [ms]
[OGL LOG][Proc: 0]init_precond: 0.045 [ms]
[OGL LOG][Proc: 0]generate_solver: 0.002 [ms]
[OGL LOG][Proc: 0]solve: 1616.37 [ms]
[OGL LOG][Proc: 0]copy_x_back: 11.214 [ms]
[OGL LOG][lduLduBase.H:380] 
Statistics:
	Time per iteration: 1441 [mu s]
	Time per iteration and DOF: 0.180125 [ns]
	Retrieve results bandwith 1.426000 [GByte/s]
nonehipGKOCG:  Solving for p, Initial residual = 0.00574907, Final residual = 9.8511e-05, No Iterations 1121
linear solve p 1846320
time step continuity errors : sum local = 6.62854e-10, global = 9.64131e-23, cumulative = 3.87229e-21
ExecutionTime = 247.17 s  ClockTime = 248 s

Time = 0.00095

Courant Number mean: 0.00676324 max: 0.0946436
DILUPBiCGStab:  Solving for Ux, Initial residual = 0.00871173, Final residual = 4.90454e-07, No Iterations 5
DILUPBiCGStab:  Solving for Uy, Initial residual = 0.0124749, Final residual = 2.05726e-07, No Iterations 5
DILUPBiCGStab:  Solving for Uz, Initial residual = 0.0239534, Final residual = 3.34085e-07, No Iterations 5
linear solve U 3215352
[OGL LOG][Proc: 0]global_index_init: 0.016 [ms]
[OGL LOG][Proc: 0]global_index_init: 0.002 [ms]
[OGL LOG][Proc: 0]update_host_matrix_data: 159.026 [ms]
[OGL LOG][Proc: 0]gather_global_matrix: 0 [ms]
[OGL LOG][Proc: 0]generate_distributed_matrix: 41.63 [ms]
[OGL LOG][Proc: 0]init_precond: 0.044 [ms]
[OGL LOG][Proc: 0]generate_solver: 0.002 [ms]
[OGL LOG][Proc: 0]solve: 1392.96 [ms]
[OGL LOG][Proc: 0]copy_x_back: 8.679 [ms]
[OGL LOG][lduLduBase.H:380] 
Statistics:
	Time per iteration: 1505 [mu s]
	Time per iteration and DOF: 0.188125 [ns]
	Retrieve results bandwith 1.843000 [GByte/s]
nonehipGKOCG:  Solving for p, Initial residual = 0.00601445, Final residual = 1.52534e-05, No Iterations 925
linear solve p 1625620
time step continuity errors : sum local = 1.08192e-10, global = -1.78624e-22, cumulative = 3.69367e-21
[OGL LOG][Proc: 0]global_index_init: 0.028 [ms]
[OGL LOG][Proc: 0]global_index_init: 0.002 [ms]
[OGL LOG][Proc: 0]update_host_matrix_data: 159.094 [ms]
[OGL LOG][Proc: 0]gather_global_matrix: 0 [ms]
[OGL LOG][Proc: 0]generate_distributed_matrix: 39.086 [ms]
[OGL LOG][Proc: 0]init_precond: 0.042 [ms]
[OGL LOG][Proc: 0]generate_solver: 0.002 [ms]
[OGL LOG][Proc: 0]solve: 1175.7 [ms]
[OGL LOG][Proc: 0]copy_x_back: 8.964 [ms]
[OGL LOG][lduLduBase.H:380] 
Statistics:
	Time per iteration: 1586 [mu s]
	Time per iteration and DOF: 0.198250 [ns]
	Retrieve results bandwith 1.784000 [GByte/s]
nonehipGKOCG:  Solving for p, Initial residual = 0.00542086, Final residual = 1.01041e-05, No Iterations 741
linear solve p 1406240
time step continuity errors : sum local = 7.4169e-11, global = 1.55673e-22, cumulative = 3.84934e-21
ExecutionTime = 255.95 s  ClockTime = 257 s

Time = 0.001

Courant Number mean: 0.00691282 max: 0.0947763
DILUPBiCGStab:  Solving for Ux, Initial residual = 0.00825314, Final residual = 4.58795e-07, No Iterations 5
DILUPBiCGStab:  Solving for Uy, Initial residual = 0.0117796, Final residual = 1.93139e-07, No Iterations 5
DILUPBiCGStab:  Solving for Uz, Initial residual = 0.0227724, Final residual = 3.10197e-07, No Iterations 5
linear solve U 3228922
[OGL LOG][Proc: 0]global_index_init: 0.028 [ms]
[OGL LOG][Proc: 0]global_index_init: 0.002 [ms]
[OGL LOG][Proc: 0]update_host_matrix_data: 160.944 [ms]
[OGL LOG][Proc: 0]gather_global_matrix: 0 [ms]
[OGL LOG][Proc: 0]generate_distributed_matrix: 41.544 [ms]
[OGL LOG][Proc: 0]init_precond: 0.044 [ms]
[OGL LOG][Proc: 0]generate_solver: 0.002 [ms]
[OGL LOG][Proc: 0]solve: 1031.98 [ms]
[OGL LOG][Proc: 0]copy_x_back: 9.61 [ms]
[OGL LOG][lduLduBase.H:380] 
Statistics:
	Time per iteration: 1691 [mu s]
	Time per iteration and DOF: 0.211375 [ns]
	Retrieve results bandwith 1.664000 [GByte/s]
nonehipGKOCG:  Solving for p, Initial residual = 0.00541534, Final residual = 2.2697e-05, No Iterations 610
linear solve p 1266318
time step continuity errors : sum local = 1.53326e-10, global = 3.21483e-22, cumulative = 4.17082e-21
[OGL LOG][Proc: 0]global_index_init: 0.016 [ms]
[OGL LOG][Proc: 0]global_index_init: 0.002 [ms]
[OGL LOG][Proc: 0]update_host_matrix_data: 158.563 [ms]
[OGL LOG][Proc: 0]gather_global_matrix: 0 [ms]
[OGL LOG][Proc: 0]generate_distributed_matrix: 39.144 [ms]
[OGL LOG][Proc: 0]init_precond: 0.045 [ms]
[OGL LOG][Proc: 0]generate_solver: 0.002 [ms]
[OGL LOG][Proc: 0]solve: 966.558 [ms]
[OGL LOG][Proc: 0]copy_x_back: 8.891 [ms]
[OGL LOG][lduLduBase.H:380] 
Statistics:
	Time per iteration: 1747 [mu s]
	Time per iteration and DOF: 0.218375 [ns]
	Retrieve results bandwith 1.799000 [GByte/s]
nonehipGKOCG:  Solving for p, Initial residual = 0.00489717, Final residual = 7.19653e-05, No Iterations 553
linear solve p 1196117
time step continuity errors : sum local = 4.86304e-10, global = 3.5379e-22, cumulative = 4.52461e-21
ExecutionTime = 264.2 s  ClockTime = 265 s

End

Finalising parallel run
================================================================================
hash: 9e1cf2d34459887845b08e4231bcc67b
/*---------------------------------------------------------------------------*\
| =========                 |                                                 |
| \\      /  F ield         | OpenFOAM: The Open Source CFD Toolbox           |
|  \\    /   O peration     | Version:  v2106                                 |
|   \\  /    A nd           | Website:  www.openfoam.com                      |
|    \\/     M anipulation  |                                                 |
\*---------------------------------------------------------------------------*/
Build  : f815a12bba-20210902 OPENFOAM=2106
Arch   : "LSB;label=32;scalar=64"
Exec   : icoFoam -parallel
Date   : Jun 26 2022
Time   : 14:30:44
Host   : nla-gpu2.ianm.kit.edu
PID    : 70010
I/O    : uncollated
Case   : /home/greole/data/code/ogl_labbook/lidDrivenCavity/simple/mesh/200/matrix_solver/CG_NoPrecond_HIP/mpiRank_gko/5/base
nProcs : 5
Hosts  :
(
    (nla-gpu2.ianm.kit.edu 5)
)
Pstream initialized with:
    floatTransfer      : 0
    nProcsSimpleSum    : 0
    commsType          : nonBlocking
    polling iterations : 0
trapFpe: Floating point exception trapping enabled (FOAM_SIGFPE).
fileModificationChecking : Monitoring run-time modified files using timeStampMaster (fileModificationSkew 5, maxFileModificationPolls 20)
allowSystemOperations : Allowing user-supplied system call operations

// * * * * * * * * * * * * * * * * * * * * * * * * * * * * * * * * * * * * * //
Create time

Create mesh for time = 0


PISO: Operating solver in PISO mode

Reading transportProperties

Reading field p

Reading field U

Reading/calculating face flux field phi


Starting time loop

Time = 5e-05

Courant Number mean: 0 max: 0
DILUPBiCGStab:  Solving for Ux, Initial residual = 1, Final residual = 0.000113142, No Iterations 5
DILUPBiCGStab:  Solving for Uy:  solution singularity
DILUPBiCGStab:  Solving for Uz:  solution singularity
linear solve U 1257334
[OGL LOG][Proc: 0]global_index_init: 10.588 [ms]
[OGL LOG][Proc: 0]global_index_init: 0.003 [ms]
[OGL LOG][Proc: 0]init_host_sparsity_pattern: 40005.8 [ms]
[OGL LOG][Proc: 0]update_host_matrix_data: 263.074 [ms]
[OGL LOG][Proc: 0]convert_coo_to_csr: 493.369 [ms]
[OGL LOG][lduLduBase.H:153] Initialising OGL
	Version:  484b851
	branch: multi_gpu 
	Ginkgo version: 1.5.0(develop)
	MPI is GPU aware: 1)
	Forces host buffer based communication: 1
[OGL LOG][Proc: 0]gather_global_matrix: 0 [ms]
[OGL LOG][Proc: 0]generate_distributed_matrix: 67.14 [ms]
[OGL LOG][Proc: 0]init_precond: 0.436 [ms]
[OGL LOG][Proc: 0]generate_solver: 0.027 [ms]
[OGL LOG][Proc: 0]solve: 2851.02 [ms]
[OGL LOG][Proc: 0]copy_x_back: 6.867 [ms]
[OGL LOG][lduLduBase.H:380] 
Statistics:
	Time per iteration: 1765 [mu s]
	Time per iteration and DOF: 0.220625 [ns]
	Retrieve results bandwith 1.863000 [GByte/s]
nonehipGKOCG:  Solving for p, Initial residual = 1, Final residual = 9.92597e-05, No Iterations 1615
linear solve p 84588219
time step continuity errors : sum local = 6.5755e-10, global = -3.04955e-22, cumulative = -3.04955e-22
[OGL LOG][Proc: 0]global_index_init: 0.026 [ms]
[OGL LOG][Proc: 0]global_index_init: 0.002 [ms]
[OGL LOG][Proc: 0]update_host_matrix_data: 131.708 [ms]
[OGL LOG][Proc: 0]gather_global_matrix: 0 [ms]
[OGL LOG][Proc: 0]generate_distributed_matrix: 35.142 [ms]
[OGL LOG][Proc: 0]init_precond: 0.053 [ms]
[OGL LOG][Proc: 0]generate_solver: 0.002 [ms]
[OGL LOG][Proc: 0]solve: 2351.41 [ms]
[OGL LOG][Proc: 0]copy_x_back: 7.275 [ms]
[OGL LOG][lduLduBase.H:380] 
Statistics:
	Time per iteration: 1468 [mu s]
	Time per iteration and DOF: 0.183500 [ns]
	Retrieve results bandwith 1.759000 [GByte/s]
nonehipGKOCG:  Solving for p, Initial residual = 0.645109, Final residual = 7.58831e-05, No Iterations 1601
linear solve p 2545295
time step continuity errors : sum local = 7.25792e-10, global = 3.00176e-23, cumulative = -2.74938e-22
ExecutionTime = 98.39 s  ClockTime = 99 s

Time = 0.0001

Courant Number mean: 0.00156137 max: 0.0657781
DILUPBiCGStab:  Solving for Ux, Initial residual = 0.189842, Final residual = 5.51711e-05, No Iterations 5
DILUPBiCGStab:  Solving for Uy, Initial residual = 0.330045, Final residual = 3.52356e-05, No Iterations 5
DILUPBiCGStab:  Solving for Uz, Initial residual = 0.993286, Final residual = 0.000160559, No Iterations 5
linear solve U 2482727
[OGL LOG][Proc: 0]global_index_init: 0.028 [ms]
[OGL LOG][Proc: 0]global_index_init: 0.003 [ms]
[OGL LOG][Proc: 0]update_host_matrix_data: 142.034 [ms]
[OGL LOG][Proc: 0]gather_global_matrix: 0 [ms]
[OGL LOG][Proc: 0]generate_distributed_matrix: 37.456 [ms]
[OGL LOG][Proc: 0]init_precond: 0.051 [ms]
[OGL LOG][Proc: 0]generate_solver: 0.003 [ms]
[OGL LOG][Proc: 0]solve: 2368.64 [ms]
[OGL LOG][Proc: 0]copy_x_back: 7.393 [ms]
[OGL LOG][lduLduBase.H:380] 
Statistics:
	Time per iteration: 1479 [mu s]
	Time per iteration and DOF: 0.184875 [ns]
	Retrieve results bandwith 1.731000 [GByte/s]
nonehipGKOCG:  Solving for p, Initial residual = 0.509851, Final residual = 3.46747e-05, No Iterations 1601
linear solve p 2575694
time step continuity errors : sum local = 3.2292e-10, global = 1.74638e-22, cumulative = -1.003e-22
[OGL LOG][Proc: 0]global_index_init: 0.02 [ms]
[OGL LOG][Proc: 0]global_index_init: 0.002 [ms]
[OGL LOG][Proc: 0]update_host_matrix_data: 133.032 [ms]
[OGL LOG][Proc: 0]gather_global_matrix: 0 [ms]
[OGL LOG][Proc: 0]generate_distributed_matrix: 35.101 [ms]
[OGL LOG][Proc: 0]init_precond: 0.053 [ms]
[OGL LOG][Proc: 0]generate_solver: 0.002 [ms]
[OGL LOG][Proc: 0]solve: 2353.54 [ms]
[OGL LOG][Proc: 0]copy_x_back: 6.259 [ms]
[OGL LOG][lduLduBase.H:380] 
Statistics:
	Time per iteration: 1470 [mu s]
	Time per iteration and DOF: 0.183750 [ns]
	Retrieve results bandwith 2.045000 [GByte/s]
nonehipGKOCG:  Solving for p, Initial residual = 0.420574, Final residual = 3.29966e-05, No Iterations 1601
linear solve p 2548308
time step continuity errors : sum local = 3.16799e-10, global = 2.16907e-22, cumulative = 1.16607e-22
ExecutionTime = 108.02 s  ClockTime = 108 s

Time = 0.00015

Courant Number mean: 0.0024116 max: 0.081051
DILUPBiCGStab:  Solving for Ux, Initial residual = 0.0803507, Final residual = 1.68306e-05, No Iterations 5
DILUPBiCGStab:  Solving for Uy, Initial residual = 0.13729, Final residual = 8.08898e-06, No Iterations 5
DILUPBiCGStab:  Solving for Uz, Initial residual = 0.0898451, Final residual = 1.99078e-05, No Iterations 5
linear solve U 2467754
[OGL LOG][Proc: 0]global_index_init: 0.024 [ms]
[OGL LOG][Proc: 0]global_index_init: 0.002 [ms]
[OGL LOG][Proc: 0]update_host_matrix_data: 137.061 [ms]
[OGL LOG][Proc: 0]gather_global_matrix: 0 [ms]
[OGL LOG][Proc: 0]generate_distributed_matrix: 34.371 [ms]
[OGL LOG][Proc: 0]init_precond: 0.049 [ms]
[OGL LOG][Proc: 0]generate_solver: 0.002 [ms]
[OGL LOG][Proc: 0]solve: 2289.79 [ms]
[OGL LOG][Proc: 0]copy_x_back: 7.094 [ms]
[OGL LOG][lduLduBase.H:380] 
Statistics:
	Time per iteration: 1489 [mu s]
	Time per iteration and DOF: 0.186125 [ns]
	Retrieve results bandwith 1.804000 [GByte/s]
nonehipGKOCG:  Solving for p, Initial residual = 0.252741, Final residual = 8.50812e-05, No Iterations 1537
linear solve p 2492063
time step continuity errors : sum local = 6.12007e-10, global = 4.35226e-23, cumulative = 1.6013e-22
[OGL LOG][Proc: 0]global_index_init: 0.027 [ms]
[OGL LOG][Proc: 0]global_index_init: 0.002 [ms]
[OGL LOG][Proc: 0]update_host_matrix_data: 131.131 [ms]
[OGL LOG][Proc: 0]gather_global_matrix: 0 [ms]
[OGL LOG][Proc: 0]generate_distributed_matrix: 35.139 [ms]
[OGL LOG][Proc: 0]init_precond: 0.043 [ms]
[OGL LOG][Proc: 0]generate_solver: 0.002 [ms]
[OGL LOG][Proc: 0]solve: 2258.4 [ms]
[OGL LOG][Proc: 0]copy_x_back: 9.542 [ms]
[OGL LOG][lduLduBase.H:380] 
Statistics:
	Time per iteration: 1479 [mu s]
	Time per iteration and DOF: 0.184875 [ns]
	Retrieve results bandwith 1.341000 [GByte/s]
nonehipGKOCG:  Solving for p, Initial residual = 0.209051, Final residual = 9.91475e-05, No Iterations 1526
linear solve p 2452443
time step continuity errors : sum local = 7.05395e-10, global = -3.61176e-23, cumulative = 1.24012e-22
ExecutionTime = 117.54 s  ClockTime = 118 s

Time = 0.0002

Courant Number mean: 0.00299656 max: 0.0859673
DILUPBiCGStab:  Solving for Ux, Initial residual = 0.0511432, Final residual = 6.99254e-06, No Iterations 5
DILUPBiCGStab:  Solving for Uy, Initial residual = 0.0858832, Final residual = 5.03308e-06, No Iterations 5
DILUPBiCGStab:  Solving for Uz, Initial residual = 0.111267, Final residual = 1.67844e-05, No Iterations 5
linear solve U 2466831
[OGL LOG][Proc: 0]global_index_init: 0.018 [ms]
[OGL LOG][Proc: 0]global_index_init: 0.002 [ms]
[OGL LOG][Proc: 0]update_host_matrix_data: 130.783 [ms]
[OGL LOG][Proc: 0]gather_global_matrix: 0 [ms]
[OGL LOG][Proc: 0]generate_distributed_matrix: 32.802 [ms]
[OGL LOG][Proc: 0]init_precond: 0.043 [ms]
[OGL LOG][Proc: 0]generate_solver: 0.003 [ms]
[OGL LOG][Proc: 0]solve: 2273.61 [ms]
[OGL LOG][Proc: 0]copy_x_back: 7.418 [ms]
[OGL LOG][lduLduBase.H:380] 
Statistics:
	Time per iteration: 1489 [mu s]
	Time per iteration and DOF: 0.186125 [ns]
	Retrieve results bandwith 1.725000 [GByte/s]
nonehipGKOCG:  Solving for p, Initial residual = 0.12268, Final residual = 6.24929e-05, No Iterations 1526
linear solve p 2469447
time step continuity errors : sum local = 4.22499e-10, global = -1.88677e-22, cumulative = -6.46641e-23
[OGL LOG][Proc: 0]global_index_init: 0.044 [ms]
[OGL LOG][Proc: 0]global_index_init: 0.003 [ms]
[OGL LOG][Proc: 0]update_host_matrix_data: 131.163 [ms]
[OGL LOG][Proc: 0]gather_global_matrix: 0 [ms]
[OGL LOG][Proc: 0]generate_distributed_matrix: 35.178 [ms]
[OGL LOG][Proc: 0]init_precond: 0.043 [ms]
[OGL LOG][Proc: 0]generate_solver: 0.002 [ms]
[OGL LOG][Proc: 0]solve: 2250.04 [ms]
[OGL LOG][Proc: 0]copy_x_back: 7.059 [ms]
[OGL LOG][lduLduBase.H:380] 
Statistics:
	Time per iteration: 1474 [mu s]
	Time per iteration and DOF: 0.184250 [ns]
	Retrieve results bandwith 1.813000 [GByte/s]
nonehipGKOCG:  Solving for p, Initial residual = 0.0993747, Final residual = 5.21754e-05, No Iterations 1526
linear solve p 2443186
time step continuity errors : sum local = 3.5668e-10, global = 3.94155e-24, cumulative = -6.07225e-23
ExecutionTime = 126.98 s  ClockTime = 127 s

Time = 0.00025

Courant Number mean: 0.00346141 max: 0.0883159
DILUPBiCGStab:  Solving for Ux, Initial residual = 0.0380471, Final residual = 2.82467e-06, No Iterations 5
DILUPBiCGStab:  Solving for Uy, Initial residual = 0.0619919, Final residual = 3.57309e-06, No Iterations 5
DILUPBiCGStab:  Solving for Uz, Initial residual = 0.0914035, Final residual = 9.09225e-06, No Iterations 5
linear solve U 2493987
[OGL LOG][Proc: 0]global_index_init: 0.022 [ms]
[OGL LOG][Proc: 0]global_index_init: 0.002 [ms]
[OGL LOG][Proc: 0]update_host_matrix_data: 135.918 [ms]
[OGL LOG][Proc: 0]gather_global_matrix: 0 [ms]
[OGL LOG][Proc: 0]generate_distributed_matrix: 34.482 [ms]
[OGL LOG][Proc: 0]init_precond: 0.045 [ms]
[OGL LOG][Proc: 0]generate_solver: 0.002 [ms]
[OGL LOG][Proc: 0]solve: 2267.33 [ms]
[OGL LOG][Proc: 0]copy_x_back: 7.016 [ms]
[OGL LOG][lduLduBase.H:380] 
Statistics:
	Time per iteration: 1485 [mu s]
	Time per iteration and DOF: 0.185625 [ns]
	Retrieve results bandwith 1.824000 [GByte/s]
nonehipGKOCG:  Solving for p, Initial residual = 0.0620496, Final residual = 4.2531e-05, No Iterations 1526
linear solve p 2465332
time step continuity errors : sum local = 2.80643e-10, global = -4.31254e-22, cumulative = -4.91976e-22
[OGL LOG][Proc: 0]global_index_init: 0.02 [ms]
[OGL LOG][Proc: 0]global_index_init: 0.002 [ms]
[OGL LOG][Proc: 0]update_host_matrix_data: 130.937 [ms]
[OGL LOG][Proc: 0]gather_global_matrix: 0 [ms]
[OGL LOG][Proc: 0]generate_distributed_matrix: 35.184 [ms]
[OGL LOG][Proc: 0]init_precond: 0.045 [ms]
[OGL LOG][Proc: 0]generate_solver: 0.002 [ms]
[OGL LOG][Proc: 0]solve: 2257.96 [ms]
[OGL LOG][Proc: 0]copy_x_back: 6.121 [ms]
[OGL LOG][lduLduBase.H:380] 
Statistics:
	Time per iteration: 1479 [mu s]
	Time per iteration and DOF: 0.184875 [ns]
	Retrieve results bandwith 2.091000 [GByte/s]
nonehipGKOCG:  Solving for p, Initial residual = 0.0521281, Final residual = 3.52206e-05, No Iterations 1526
linear solve p 2450296
time step continuity errors : sum local = 2.32754e-10, global = -1.74853e-22, cumulative = -6.66829e-22
ExecutionTime = 136.39 s  ClockTime = 137 s

Time = 0.0003

Courant Number mean: 0.0038543 max: 0.0897419
DILUPBiCGStab:  Solving for Ux, Initial residual = 0.0304964, Final residual = 1.8059e-06, No Iterations 5
DILUPBiCGStab:  Solving for Uy, Initial residual = 0.0485937, Final residual = 2.43708e-06, No Iterations 5
DILUPBiCGStab:  Solving for Uz, Initial residual = 0.076648, Final residual = 5.99435e-06, No Iterations 5
linear solve U 2479164
[OGL LOG][Proc: 0]global_index_init: 0.023 [ms]
[OGL LOG][Proc: 0]global_index_init: 0.002 [ms]
[OGL LOG][Proc: 0]update_host_matrix_data: 132.328 [ms]
[OGL LOG][Proc: 0]gather_global_matrix: 0 [ms]
[OGL LOG][Proc: 0]generate_distributed_matrix: 32.562 [ms]
[OGL LOG][Proc: 0]init_precond: 0.041 [ms]
[OGL LOG][Proc: 0]generate_solver: 0.002 [ms]
[OGL LOG][Proc: 0]solve: 2187.19 [ms]
[OGL LOG][Proc: 0]copy_x_back: 7.35 [ms]
[OGL LOG][lduLduBase.H:380] 
Statistics:
	Time per iteration: 1492 [mu s]
	Time per iteration and DOF: 0.186500 [ns]
	Retrieve results bandwith 1.741000 [GByte/s]
nonehipGKOCG:  Solving for p, Initial residual = 0.0392473, Final residual = 8.88479e-05, No Iterations 1465
linear solve p 2383933
time step continuity errors : sum local = 5.81126e-10, global = -5.04916e-23, cumulative = -7.17321e-22
[OGL LOG][Proc: 0]global_index_init: 0.033 [ms]
[OGL LOG][Proc: 0]global_index_init: 0.002 [ms]
[OGL LOG][Proc: 0]update_host_matrix_data: 130.517 [ms]
[OGL LOG][Proc: 0]gather_global_matrix: 0 [ms]
[OGL LOG][Proc: 0]generate_distributed_matrix: 35.173 [ms]
[OGL LOG][Proc: 0]init_precond: 0.044 [ms]
[OGL LOG][Proc: 0]generate_solver: 0.002 [ms]
[OGL LOG][Proc: 0]solve: 2165.04 [ms]
[OGL LOG][Proc: 0]copy_x_back: 6.862 [ms]
[OGL LOG][lduLduBase.H:380] 
Statistics:
	Time per iteration: 1492 [mu s]
	Time per iteration and DOF: 0.186500 [ns]
	Retrieve results bandwith 1.865000 [GByte/s]
nonehipGKOCG:  Solving for p, Initial residual = 0.0331917, Final residual = 9.72712e-05, No Iterations 1451
linear solve p 2357646
time step continuity errors : sum local = 6.38967e-10, global = -1.90179e-22, cumulative = -9.07499e-22
ExecutionTime = 145.67 s  ClockTime = 146 s

Time = 0.00035

Courant Number mean: 0.00419847 max: 0.0907275
DILUPBiCGStab:  Solving for Ux, Initial residual = 0.0255232, Final residual = 1.63582e-06, No Iterations 5
DILUPBiCGStab:  Solving for Uy, Initial residual = 0.0399272, Final residual = 1.86038e-06, No Iterations 5
DILUPBiCGStab:  Solving for Uz, Initial residual = 0.0657243, Final residual = 3.9559e-06, No Iterations 5
linear solve U 2483135
[OGL LOG][Proc: 0]global_index_init: 0.018 [ms]
[OGL LOG][Proc: 0]global_index_init: 0.003 [ms]
[OGL LOG][Proc: 0]update_host_matrix_data: 137.061 [ms]
[OGL LOG][Proc: 0]gather_global_matrix: 0 [ms]
[OGL LOG][Proc: 0]generate_distributed_matrix: 35.792 [ms]
[OGL LOG][Proc: 0]init_precond: 0.048 [ms]
[OGL LOG][Proc: 0]generate_solver: 0.003 [ms]
[OGL LOG][Proc: 0]solve: 2167.92 [ms]
[OGL LOG][Proc: 0]copy_x_back: 7.161 [ms]
[OGL LOG][lduLduBase.H:380] 
Statistics:
	Time per iteration: 1494 [mu s]
	Time per iteration and DOF: 0.186750 [ns]
	Retrieve results bandwith 1.787000 [GByte/s]
nonehipGKOCG:  Solving for p, Initial residual = 0.0289152, Final residual = 8.14258e-05, No Iterations 1451
linear solve p 2370542
time step continuity errors : sum local = 5.34311e-10, global = -2.58517e-22, cumulative = -1.16602e-21
[OGL LOG][Proc: 0]global_index_init: 0.02 [ms]
[OGL LOG][Proc: 0]global_index_init: 0.002 [ms]
[OGL LOG][Proc: 0]update_host_matrix_data: 129.473 [ms]
[OGL LOG][Proc: 0]gather_global_matrix: 0 [ms]
[OGL LOG][Proc: 0]generate_distributed_matrix: 35.259 [ms]
[OGL LOG][Proc: 0]init_precond: 0.044 [ms]
[OGL LOG][Proc: 0]generate_solver: 0.002 [ms]
[OGL LOG][Proc: 0]solve: 2167.44 [ms]
[OGL LOG][Proc: 0]copy_x_back: 6.362 [ms]
[OGL LOG][lduLduBase.H:380] 
Statistics:
	Time per iteration: 1493 [mu s]
	Time per iteration and DOF: 0.186625 [ns]
	Retrieve results bandwith 2.011000 [GByte/s]
nonehipGKOCG:  Solving for p, Initial residual = 0.0251045, Final residual = 6.81603e-05, No Iterations 1451
linear solve p 2358695
time step continuity errors : sum local = 4.48099e-10, global = 1.18094e-22, cumulative = -1.04792e-21
ExecutionTime = 154.94 s  ClockTime = 156 s

Time = 0.0004

Courant Number mean: 0.00450625 max: 0.0914619
DILUPBiCGStab:  Solving for Ux, Initial residual = 0.0219752, Final residual = 1.47739e-06, No Iterations 5
DILUPBiCGStab:  Solving for Uy, Initial residual = 0.0338739, Final residual = 1.41862e-06, No Iterations 5
DILUPBiCGStab:  Solving for Uz, Initial residual = 0.057773, Final residual = 2.99612e-06, No Iterations 5
linear solve U 2469429
[OGL LOG][Proc: 0]global_index_init: 0.017 [ms]
[OGL LOG][Proc: 0]global_index_init: 0.002 [ms]
[OGL LOG][Proc: 0]update_host_matrix_data: 131.382 [ms]
[OGL LOG][Proc: 0]gather_global_matrix: 0 [ms]
[OGL LOG][Proc: 0]generate_distributed_matrix: 33.169 [ms]
[OGL LOG][Proc: 0]init_precond: 0.05 [ms]
[OGL LOG][Proc: 0]generate_solver: 0.003 [ms]
[OGL LOG][Proc: 0]solve: 2172.67 [ms]
[OGL LOG][Proc: 0]copy_x_back: 7.604 [ms]
[OGL LOG][lduLduBase.H:380] 
Statistics:
	Time per iteration: 1497 [mu s]
	Time per iteration and DOF: 0.187125 [ns]
	Retrieve results bandwith 1.683000 [GByte/s]
nonehipGKOCG:  Solving for p, Initial residual = 0.0215232, Final residual = 7.95053e-05, No Iterations 1451
linear solve p 2368640
time step continuity errors : sum local = 5.22674e-10, global = -1.91868e-22, cumulative = -1.23979e-21
[OGL LOG][Proc: 0]global_index_init: 0.017 [ms]
[OGL LOG][Proc: 0]global_index_init: 0.002 [ms]
[OGL LOG][Proc: 0]update_host_matrix_data: 129.364 [ms]
[OGL LOG][Proc: 0]gather_global_matrix: 0 [ms]
[OGL LOG][Proc: 0]generate_distributed_matrix: 35.149 [ms]
[OGL LOG][Proc: 0]init_precond: 0.049 [ms]
[OGL LOG][Proc: 0]generate_solver: 0.003 [ms]
[OGL LOG][Proc: 0]solve: 2155.1 [ms]
[OGL LOG][Proc: 0]copy_x_back: 9.493 [ms]
[OGL LOG][lduLduBase.H:380] 
Statistics:
	Time per iteration: 1485 [mu s]
	Time per iteration and DOF: 0.185625 [ns]
	Retrieve results bandwith 1.348000 [GByte/s]
nonehipGKOCG:  Solving for p, Initial residual = 0.0190368, Final residual = 5.97705e-05, No Iterations 1451
linear solve p 2346927
time step continuity errors : sum local = 3.93756e-10, global = -3.6674e-22, cumulative = -1.60653e-21
ExecutionTime = 164.13 s  ClockTime = 165 s

Time = 0.00045

Courant Number mean: 0.0047857 max: 0.0920368
DILUPBiCGStab:  Solving for Ux, Initial residual = 0.0193079, Final residual = 1.27987e-06, No Iterations 5
DILUPBiCGStab:  Solving for Uy, Initial residual = 0.0293939, Final residual = 1.17698e-06, No Iterations 5
DILUPBiCGStab:  Solving for Uz, Initial residual = 0.0512402, Final residual = 2.35072e-06, No Iterations 5
linear solve U 2481265
[OGL LOG][Proc: 0]global_index_init: 0.023 [ms]
[OGL LOG][Proc: 0]global_index_init: 0.003 [ms]
[OGL LOG][Proc: 0]update_host_matrix_data: 136.672 [ms]
[OGL LOG][Proc: 0]gather_global_matrix: 0 [ms]
[OGL LOG][Proc: 0]generate_distributed_matrix: 34.218 [ms]
[OGL LOG][Proc: 0]init_precond: 0.047 [ms]
[OGL LOG][Proc: 0]generate_solver: 0.003 [ms]
[OGL LOG][Proc: 0]solve: 2169.37 [ms]
[OGL LOG][Proc: 0]copy_x_back: 7.434 [ms]
[OGL LOG][lduLduBase.H:380] 
Statistics:
	Time per iteration: 1495 [mu s]
	Time per iteration and DOF: 0.186875 [ns]
	Retrieve results bandwith 1.721000 [GByte/s]
nonehipGKOCG:  Solving for p, Initial residual = 0.0178931, Final residual = 6.50782e-05, No Iterations 1451
linear solve p 2367792
time step continuity errors : sum local = 4.28911e-10, global = 2.03589e-22, cumulative = -1.40294e-21
[OGL LOG][Proc: 0]global_index_init: 0.029 [ms]
[OGL LOG][Proc: 0]global_index_init: 0.002 [ms]
[OGL LOG][Proc: 0]update_host_matrix_data: 129.286 [ms]
[OGL LOG][Proc: 0]gather_global_matrix: 0 [ms]
[OGL LOG][Proc: 0]generate_distributed_matrix: 35.183 [ms]
[OGL LOG][Proc: 0]init_precond: 0.045 [ms]
[OGL LOG][Proc: 0]generate_solver: 0.002 [ms]
[OGL LOG][Proc: 0]solve: 2159.46 [ms]
[OGL LOG][Proc: 0]copy_x_back: 6.416 [ms]
[OGL LOG][lduLduBase.H:380] 
Statistics:
	Time per iteration: 1488 [mu s]
	Time per iteration and DOF: 0.186000 [ns]
	Retrieve results bandwith 1.995000 [GByte/s]
nonehipGKOCG:  Solving for p, Initial residual = 0.0159363, Final residual = 4.73131e-05, No Iterations 1451
linear solve p 2350024
time step continuity errors : sum local = 3.1227e-10, global = 2.24334e-23, cumulative = -1.38051e-21
ExecutionTime = 173.33 s  ClockTime = 174 s

Time = 0.0005

Courant Number mean: 0.00504293 max: 0.0925026
DILUPBiCGStab:  Solving for Ux, Initial residual = 0.0172238, Final residual = 1.09803e-06, No Iterations 5
DILUPBiCGStab:  Solving for Uy, Initial residual = 0.0259476, Final residual = 9.92044e-07, No Iterations 5
DILUPBiCGStab:  Solving for Uz, Initial residual = 0.0461355, Final residual = 1.97809e-06, No Iterations 5
linear solve U 2477796
[OGL LOG][Proc: 0]global_index_init: 0.016 [ms]
[OGL LOG][Proc: 0]global_index_init: 0.003 [ms]
[OGL LOG][Proc: 0]update_host_matrix_data: 131.737 [ms]
[OGL LOG][Proc: 0]gather_global_matrix: 0 [ms]
[OGL LOG][Proc: 0]generate_distributed_matrix: 32.593 [ms]
[OGL LOG][Proc: 0]init_precond: 0.048 [ms]
[OGL LOG][Proc: 0]generate_solver: 0.002 [ms]
[OGL LOG][Proc: 0]solve: 2168.86 [ms]
[OGL LOG][Proc: 0]copy_x_back: 7.244 [ms]
[OGL LOG][lduLduBase.H:380] 
Statistics:
	Time per iteration: 1494 [mu s]
	Time per iteration and DOF: 0.186750 [ns]
	Retrieve results bandwith 1.766000 [GByte/s]
nonehipGKOCG:  Solving for p, Initial residual = 0.0149548, Final residual = 5.4494e-05, No Iterations 1451
linear solve p 2365305
time step continuity errors : sum local = 3.59879e-10, global = 8.93807e-24, cumulative = -1.37157e-21
[OGL LOG][Proc: 0]global_index_init: 0.03 [ms]
[OGL LOG][Proc: 0]global_index_init: 0.003 [ms]
[OGL LOG][Proc: 0]update_host_matrix_data: 131.813 [ms]
[OGL LOG][Proc: 0]gather_global_matrix: 0 [ms]
[OGL LOG][Proc: 0]generate_distributed_matrix: 35.248 [ms]
[OGL LOG][Proc: 0]init_precond: 0.048 [ms]
[OGL LOG][Proc: 0]generate_solver: 0.002 [ms]
[OGL LOG][Proc: 0]solve: 2083.09 [ms]
[OGL LOG][Proc: 0]copy_x_back: 6.83 [ms]
[OGL LOG][lduLduBase.H:380] 
Statistics:
	Time per iteration: 1495 [mu s]
	Time per iteration and DOF: 0.186875 [ns]
	Retrieve results bandwith 1.874000 [GByte/s]
nonehipGKOCG:  Solving for p, Initial residual = 0.0134008, Final residual = 9.61312e-05, No Iterations 1393
linear solve p 2278355
time step continuity errors : sum local = 6.3573e-10, global = 6.95898e-23, cumulative = -1.30198e-21
ExecutionTime = 182.49 s  ClockTime = 183 s

Time = 0.00055

Courant Number mean: 0.00528116 max: 0.09289
DILUPBiCGStab:  Solving for Ux, Initial residual = 0.0155467, Final residual = 9.46433e-07, No Iterations 5
DILUPBiCGStab:  Solving for Uy, Initial residual = 0.0232124, Final residual = 8.64255e-07, No Iterations 5
DILUPBiCGStab:  Solving for Uz, Initial residual = 0.0417851, Final residual = 1.71829e-06, No Iterations 5
linear solve U 2483351
[OGL LOG][Proc: 0]global_index_init: 0.022 [ms]
[OGL LOG][Proc: 0]global_index_init: 0.002 [ms]
[OGL LOG][Proc: 0]update_host_matrix_data: 136.936 [ms]
[OGL LOG][Proc: 0]gather_global_matrix: 0 [ms]
[OGL LOG][Proc: 0]generate_distributed_matrix: 34.07 [ms]
[OGL LOG][Proc: 0]init_precond: 0.044 [ms]
[OGL LOG][Proc: 0]generate_solver: 0.002 [ms]
[OGL LOG][Proc: 0]solve: 2145.57 [ms]
[OGL LOG][Proc: 0]copy_x_back: 6.979 [ms]
[OGL LOG][lduLduBase.H:380] 
Statistics:
	Time per iteration: 1499 [mu s]
	Time per iteration and DOF: 0.187375 [ns]
	Retrieve results bandwith 1.834000 [GByte/s]
nonehipGKOCG:  Solving for p, Initial residual = 0.013042, Final residual = 6.20025e-05, No Iterations 1431
linear solve p 2343368
time step continuity errors : sum local = 4.10273e-10, global = -3.09708e-22, cumulative = -1.61169e-21
[OGL LOG][Proc: 0]global_index_init: 0.032 [ms]
[OGL LOG][Proc: 0]global_index_init: 0.002 [ms]
[OGL LOG][Proc: 0]update_host_matrix_data: 129.462 [ms]
[OGL LOG][Proc: 0]gather_global_matrix: 0 [ms]
[OGL LOG][Proc: 0]generate_distributed_matrix: 35.122 [ms]
[OGL LOG][Proc: 0]init_precond: 0.048 [ms]
[OGL LOG][Proc: 0]generate_solver: 0.003 [ms]
[OGL LOG][Proc: 0]solve: 2132.14 [ms]
[OGL LOG][Proc: 0]copy_x_back: 6.835 [ms]
[OGL LOG][lduLduBase.H:380] 
Statistics:
	Time per iteration: 1495 [mu s]
	Time per iteration and DOF: 0.186875 [ns]
	Retrieve results bandwith 1.872000 [GByte/s]
nonehipGKOCG:  Solving for p, Initial residual = 0.0116982, Final residual = 6.22063e-05, No Iterations 1426
linear solve p 2323394
time step continuity errors : sum local = 4.12045e-10, global = 1.607e-22, cumulative = -1.45099e-21
ExecutionTime = 191.67 s  ClockTime = 193 s

Time = 0.0006

Courant Number mean: 0.0055039 max: 0.0932188
DILUPBiCGStab:  Solving for Ux, Initial residual = 0.0141664, Final residual = 8.24861e-07, No Iterations 5
DILUPBiCGStab:  Solving for Uy, Initial residual = 0.0209896, Final residual = 7.61446e-07, No Iterations 5
DILUPBiCGStab:  Solving for Uz, Initial residual = 0.0383127, Final residual = 1.53918e-06, No Iterations 5
linear solve U 2453467
[OGL LOG][Proc: 0]global_index_init: 0.017 [ms]
[OGL LOG][Proc: 0]global_index_init: 0.002 [ms]
[OGL LOG][Proc: 0]update_host_matrix_data: 128.052 [ms]
[OGL LOG][Proc: 0]gather_global_matrix: 0 [ms]
[OGL LOG][Proc: 0]generate_distributed_matrix: 32.473 [ms]
[OGL LOG][Proc: 0]init_precond: 0.05 [ms]
[OGL LOG][Proc: 0]generate_solver: 0.002 [ms]
[OGL LOG][Proc: 0]solve: 2137.86 [ms]
[OGL LOG][Proc: 0]copy_x_back: 7.323 [ms]
[OGL LOG][lduLduBase.H:380] 
Statistics:
	Time per iteration: 1499 [mu s]
	Time per iteration and DOF: 0.187375 [ns]
	Retrieve results bandwith 1.747000 [GByte/s]
nonehipGKOCG:  Solving for p, Initial residual = 0.011436, Final residual = 6.7162e-05, No Iterations 1426
linear solve p 2336187
time step continuity errors : sum local = 4.45142e-10, global = -2.52728e-22, cumulative = -1.70372e-21
[OGL LOG][Proc: 0]global_index_init: 0.023 [ms]
[OGL LOG][Proc: 0]global_index_init: 0.002 [ms]
[OGL LOG][Proc: 0]update_host_matrix_data: 131.225 [ms]
[OGL LOG][Proc: 0]gather_global_matrix: 0 [ms]
[OGL LOG][Proc: 0]generate_distributed_matrix: 35.272 [ms]
[OGL LOG][Proc: 0]init_precond: 0.048 [ms]
[OGL LOG][Proc: 0]generate_solver: 0.003 [ms]
[OGL LOG][Proc: 0]solve: 2124.98 [ms]
[OGL LOG][Proc: 0]copy_x_back: 6.442 [ms]
[OGL LOG][lduLduBase.H:380] 
Statistics:
	Time per iteration: 1490 [mu s]
	Time per iteration and DOF: 0.186250 [ns]
	Retrieve results bandwith 1.986000 [GByte/s]
nonehipGKOCG:  Solving for p, Initial residual = 0.0102942, Final residual = 5.14803e-05, No Iterations 1426
linear solve p 2318207
time step continuity errors : sum local = 3.41523e-10, global = -3.38537e-23, cumulative = -1.73757e-21
ExecutionTime = 200.79 s  ClockTime = 202 s

Time = 0.00065

Courant Number mean: 0.00571309 max: 0.0935023
DILUPBiCGStab:  Solving for Ux, Initial residual = 0.0130116, Final residual = 7.28273e-07, No Iterations 5
DILUPBiCGStab:  Solving for Uy, Initial residual = 0.0191474, Final residual = 6.79844e-07, No Iterations 5
DILUPBiCGStab:  Solving for Uz, Initial residual = 0.0352962, Final residual = 1.39604e-06, No Iterations 5
linear solve U 2468104
[OGL LOG][Proc: 0]global_index_init: 0.018 [ms]
[OGL LOG][Proc: 0]global_index_init: 0.003 [ms]
[OGL LOG][Proc: 0]update_host_matrix_data: 134.764 [ms]
[OGL LOG][Proc: 0]gather_global_matrix: 0 [ms]
[OGL LOG][Proc: 0]generate_distributed_matrix: 33.913 [ms]
[OGL LOG][Proc: 0]init_precond: 0.048 [ms]
[OGL LOG][Proc: 0]generate_solver: 0.003 [ms]
[OGL LOG][Proc: 0]solve: 2138.11 [ms]
[OGL LOG][Proc: 0]copy_x_back: 7.212 [ms]
[OGL LOG][lduLduBase.H:380] 
Statistics:
	Time per iteration: 1499 [mu s]
	Time per iteration and DOF: 0.187375 [ns]
	Retrieve results bandwith 1.774000 [GByte/s]
nonehipGKOCG:  Solving for p, Initial residual = 0.0101385, Final residual = 5.80307e-05, No Iterations 1426
linear solve p 2334082
time step continuity errors : sum local = 3.85184e-10, global = 6.51902e-23, cumulative = -1.67238e-21
[OGL LOG][Proc: 0]global_index_init: 0.031 [ms]
[OGL LOG][Proc: 0]global_index_init: 0.002 [ms]
[OGL LOG][Proc: 0]update_host_matrix_data: 127.687 [ms]
[OGL LOG][Proc: 0]gather_global_matrix: 0 [ms]
[OGL LOG][Proc: 0]generate_distributed_matrix: 35.077 [ms]
[OGL LOG][Proc: 0]init_precond: 0.049 [ms]
[OGL LOG][Proc: 0]generate_solver: 0.002 [ms]
[OGL LOG][Proc: 0]solve: 2120.55 [ms]
[OGL LOG][Proc: 0]copy_x_back: 6.913 [ms]
[OGL LOG][lduLduBase.H:380] 
Statistics:
	Time per iteration: 1487 [mu s]
	Time per iteration and DOF: 0.185875 [ns]
	Retrieve results bandwith 1.851000 [GByte/s]
nonehipGKOCG:  Solving for p, Initial residual = 0.00914927, Final residual = 4.71294e-05, No Iterations 1426
linear solve p 2309891
time step continuity errors : sum local = 3.13077e-10, global = -1.7541e-22, cumulative = -1.84779e-21
ExecutionTime = 209.92 s  ClockTime = 211 s

Time = 0.0007

Courant Number mean: 0.00591032 max: 0.0937501
DILUPBiCGStab:  Solving for Ux, Initial residual = 0.0120288, Final residual = 6.50615e-07, No Iterations 5
DILUPBiCGStab:  Solving for Uy, Initial residual = 0.0175959, Final residual = 6.12149e-07, No Iterations 5
DILUPBiCGStab:  Solving for Uz, Initial residual = 0.0327267, Final residual = 1.28366e-06, No Iterations 5
linear solve U 2471967
[OGL LOG][Proc: 0]global_index_init: 0.024 [ms]
[OGL LOG][Proc: 0]global_index_init: 0.002 [ms]
[OGL LOG][Proc: 0]update_host_matrix_data: 131.497 [ms]
[OGL LOG][Proc: 0]gather_global_matrix: 0 [ms]
[OGL LOG][Proc: 0]generate_distributed_matrix: 32.538 [ms]
[OGL LOG][Proc: 0]init_precond: 0.052 [ms]
[OGL LOG][Proc: 0]generate_solver: 0.002 [ms]
[OGL LOG][Proc: 0]solve: 2144.71 [ms]
[OGL LOG][Proc: 0]copy_x_back: 7.689 [ms]
[OGL LOG][lduLduBase.H:380] 
Statistics:
	Time per iteration: 1504 [mu s]
	Time per iteration and DOF: 0.188000 [ns]
	Retrieve results bandwith 1.664000 [GByte/s]
nonehipGKOCG:  Solving for p, Initial residual = 0.009088, Final residual = 5.08899e-05, No Iterations 1426
linear solve p 2341183
time step continuity errors : sum local = 3.38235e-10, global = -1.16856e-22, cumulative = -1.96464e-21
[OGL LOG][Proc: 0]global_index_init: 0.025 [ms]
[OGL LOG][Proc: 0]global_index_init: 0.002 [ms]
[OGL LOG][Proc: 0]update_host_matrix_data: 131.147 [ms]
[OGL LOG][Proc: 0]gather_global_matrix: 0 [ms]
[OGL LOG][Proc: 0]generate_distributed_matrix: 35.19 [ms]
[OGL LOG][Proc: 0]init_precond: 0.05 [ms]
[OGL LOG][Proc: 0]generate_solver: 0.003 [ms]
[OGL LOG][Proc: 0]solve: 2125.4 [ms]
[OGL LOG][Proc: 0]copy_x_back: 6.298 [ms]
[OGL LOG][lduLduBase.H:380] 
Statistics:
	Time per iteration: 1490 [mu s]
	Time per iteration and DOF: 0.186250 [ns]
	Retrieve results bandwith 2.032000 [GByte/s]
nonehipGKOCG:  Solving for p, Initial residual = 0.00820661, Final residual = 4.02077e-05, No Iterations 1426
linear solve p 2317961
time step continuity errors : sum local = 2.67428e-10, global = 1.012e-23, cumulative = -1.95452e-21
ExecutionTime = 219.06 s  ClockTime = 220 s

Time = 0.00075

Courant Number mean: 0.0060976 max: 0.093969
DILUPBiCGStab:  Solving for Ux, Initial residual = 0.0111821, Final residual = 5.8729e-07, No Iterations 5
DILUPBiCGStab:  Solving for Uy, Initial residual = 0.0162715, Final residual = 5.55832e-07, No Iterations 5
DILUPBiCGStab:  Solving for Uz, Initial residual = 0.0304993, Final residual = 1.19075e-06, No Iterations 5
linear solve U 2469783
[OGL LOG][Proc: 0]global_index_init: 0.036 [ms]
[OGL LOG][Proc: 0]global_index_init: 0.003 [ms]
[OGL LOG][Proc: 0]update_host_matrix_data: 136.216 [ms]
[OGL LOG][Proc: 0]gather_global_matrix: 0 [ms]
[OGL LOG][Proc: 0]generate_distributed_matrix: 34.485 [ms]
[OGL LOG][Proc: 0]init_precond: 0.047 [ms]
[OGL LOG][Proc: 0]generate_solver: 0.002 [ms]
[OGL LOG][Proc: 0]solve: 2140.37 [ms]
[OGL LOG][Proc: 0]copy_x_back: 7.428 [ms]
[OGL LOG][lduLduBase.H:380] 
Statistics:
	Time per iteration: 1500 [mu s]
	Time per iteration and DOF: 0.187500 [ns]
	Retrieve results bandwith 1.723000 [GByte/s]
nonehipGKOCG:  Solving for p, Initial residual = 0.0082081, Final residual = 4.45376e-05, No Iterations 1426
linear solve p 2342164
time step continuity errors : sum local = 2.96372e-10, global = 3.51571e-22, cumulative = -1.60295e-21
[OGL LOG][Proc: 0]global_index_init: 0.016 [ms]
[OGL LOG][Proc: 0]global_index_init: 0.003 [ms]
[OGL LOG][Proc: 0]update_host_matrix_data: 130.605 [ms]
[OGL LOG][Proc: 0]gather_global_matrix: 0 [ms]
[OGL LOG][Proc: 0]generate_distributed_matrix: 35.141 [ms]
[OGL LOG][Proc: 0]init_precond: 0.05 [ms]
[OGL LOG][Proc: 0]generate_solver: 0.003 [ms]
[OGL LOG][Proc: 0]solve: 2055.19 [ms]
[OGL LOG][Proc: 0]copy_x_back: 7.094 [ms]
[OGL LOG][lduLduBase.H:380] 
Statistics:
	Time per iteration: 1501 [mu s]
	Time per iteration and DOF: 0.187625 [ns]
	Retrieve results bandwith 1.804000 [GByte/s]
nonehipGKOCG:  Solving for p, Initial residual = 0.00742167, Final residual = 9.50359e-05, No Iterations 1369
linear solve p 2247792
time step continuity errors : sum local = 6.32873e-10, global = -5.68738e-23, cumulative = -1.65983e-21
ExecutionTime = 228.17 s  ClockTime = 229 s

Time = 0.0008

Courant Number mean: 0.00627536 max: 0.0941643
DILUPBiCGStab:  Solving for Ux, Initial residual = 0.0104455, Final residual = 5.35112e-07, No Iterations 5
DILUPBiCGStab:  Solving for Uy, Initial residual = 0.0151279, Final residual = 5.0825e-07, No Iterations 5
DILUPBiCGStab:  Solving for Uz, Initial residual = 0.0285203, Final residual = 1.11219e-06, No Iterations 5
linear solve U 2469127
[OGL LOG][Proc: 0]global_index_init: 0.025 [ms]
[OGL LOG][Proc: 0]global_index_init: 0.002 [ms]
[OGL LOG][Proc: 0]update_host_matrix_data: 132.657 [ms]
[OGL LOG][Proc: 0]gather_global_matrix: 0 [ms]
[OGL LOG][Proc: 0]generate_distributed_matrix: 32.74 [ms]
[OGL LOG][Proc: 0]init_precond: 0.043 [ms]
[OGL LOG][Proc: 0]generate_solver: 0.002 [ms]
[OGL LOG][Proc: 0]solve: 2106.86 [ms]
[OGL LOG][Proc: 0]copy_x_back: 7.405 [ms]
[OGL LOG][lduLduBase.H:380] 
Statistics:
	Time per iteration: 1499 [mu s]
	Time per iteration and DOF: 0.187375 [ns]
	Retrieve results bandwith 1.728000 [GByte/s]
nonehipGKOCG:  Solving for p, Initial residual = 0.00760126, Final residual = 3.58968e-05, No Iterations 1405
linear solve p 2299199
time step continuity errors : sum local = 2.39176e-10, global = -3.98022e-22, cumulative = -2.05785e-21
[OGL LOG][Proc: 0]global_index_init: 0.032 [ms]
[OGL LOG][Proc: 0]global_index_init: 0.002 [ms]
[OGL LOG][Proc: 0]update_host_matrix_data: 131.718 [ms]
[OGL LOG][Proc: 0]gather_global_matrix: 0 [ms]
[OGL LOG][Proc: 0]generate_distributed_matrix: 35.109 [ms]
[OGL LOG][Proc: 0]init_precond: 0.049 [ms]
[OGL LOG][Proc: 0]generate_solver: 0.003 [ms]
[OGL LOG][Proc: 0]solve: 2108.64 [ms]
[OGL LOG][Proc: 0]copy_x_back: 9.735 [ms]
[OGL LOG][lduLduBase.H:380] 
Statistics:
	Time per iteration: 1505 [mu s]
	Time per iteration and DOF: 0.188125 [ns]
	Retrieve results bandwith 1.314000 [GByte/s]
nonehipGKOCG:  Solving for p, Initial residual = 0.00684667, Final residual = 3.2924e-05, No Iterations 1401
linear solve p 2305738
time step continuity errors : sum local = 2.19489e-10, global = -2.95956e-23, cumulative = -2.08745e-21
ExecutionTime = 237.22 s  ClockTime = 239 s

Time = 0.00085

Courant Number mean: 0.00644512 max: 0.0943399
DILUPBiCGStab:  Solving for Ux, Initial residual = 0.00979765, Final residual = 4.914e-07, No Iterations 5
DILUPBiCGStab:  Solving for Uy, Initial residual = 0.0141301, Final residual = 4.67846e-07, No Iterations 5
DILUPBiCGStab:  Solving for Uz, Initial residual = 0.0267931, Final residual = 1.04501e-06, No Iterations 5
linear solve U 2471301
[OGL LOG][Proc: 0]global_index_init: 0.026 [ms]
[OGL LOG][Proc: 0]global_index_init: 0.003 [ms]
[OGL LOG][Proc: 0]update_host_matrix_data: 138.7 [ms]
[...]
linear solve p 312727
time step continuity errors : sum local = 8.71174e-10, global = -1.19063e-21, cumulative = 3.95398e-21
[OGL LOG][Proc: 0]global_index_init: 0.035 [ms]
[OGL LOG][Proc: 0]global_index_init: 0.003 [ms]
[OGL LOG][Proc: 0]update_host_matrix_data: 11.769 [ms]
[OGL LOG][Proc: 0]gather_global_matrix: 0 [ms]
[OGL LOG][Proc: 0]generate_distributed_matrix: 3.307 [ms]
[OGL LOG][Proc: 0]init_precond: 0.035 [ms]
[OGL LOG][Proc: 0]generate_solver: 0.002 [ms]
[OGL LOG][Proc: 0]solve: 266.262 [ms]
[OGL LOG][Proc: 0]copy_x_back: 0.448 [ms]
[OGL LOG][lduLduBase.H:380] 
Statistics:
	Time per iteration: 395 [mu s]
	Time per iteration and DOF: 0.395000 [ns]
	Retrieve results bandwith 2.996000 [GByte/s]
nonehipGKOCG:  Solving for p, Initial residual = 0.00823043, Final residual = 9.85878e-05, No Iterations 673
linear solve p 284161
time step continuity errors : sum local = 2.40487e-09, global = 2.26878e-22, cumulative = 4.18086e-21
ExecutionTime = 12.54 s  ClockTime = 13 s

Time = 0.0012

Courant Number mean: 0.00722379 max: 0.0900356
DILUPBiCGStab:  Solving for Ux, Initial residual = 0.0147485, Final residual = 5.32708e-08, No Iterations 5
DILUPBiCGStab:  Solving for Uy, Initial residual = 0.0202882, Final residual = 3.52532e-08, No Iterations 5
DILUPBiCGStab:  Solving for Uz, Initial residual = 0.0381764, Final residual = 1.137e-07, No Iterations 5
linear solve U 134794
[OGL LOG][Proc: 0]global_index_init: 0.018 [ms]
[OGL LOG][Proc: 0]global_index_init: 0.003 [ms]
[OGL LOG][Proc: 0]update_host_matrix_data: 11.693 [ms]
[OGL LOG][Proc: 0]gather_global_matrix: 0 [ms]
[OGL LOG][Proc: 0]generate_distributed_matrix: 3.171 [ms]
[OGL LOG][Proc: 0]init_precond: 0.035 [ms]
[OGL LOG][Proc: 0]generate_solver: 0.002 [ms]
[OGL LOG][Proc: 0]solve: 269.557 [ms]
[OGL LOG][Proc: 0]copy_x_back: 0.45 [ms]
[OGL LOG][lduLduBase.H:380] 
Statistics:
	Time per iteration: 398 [mu s]
	Time per iteration and DOF: 0.398000 [ns]
	Retrieve results bandwith 2.983000 [GByte/s]
nonehipGKOCG:  Solving for p, Initial residual = 0.00901457, Final residual = 9.21302e-05, No Iterations 677
linear solve p 286849
time step continuity errors : sum local = 2.25037e-09, global = 7.04389e-22, cumulative = 4.88525e-21
[OGL LOG][Proc: 0]global_index_init: 0.027 [ms]
[OGL LOG][Proc: 0]global_index_init: 0.003 [ms]
[OGL LOG][Proc: 0]update_host_matrix_data: 11.786 [ms]
[OGL LOG][Proc: 0]gather_global_matrix: 0 [ms]
[OGL LOG][Proc: 0]generate_distributed_matrix: 3.175 [ms]
[OGL LOG][Proc: 0]init_precond: 0.035 [ms]
[OGL LOG][Proc: 0]generate_solver: 0.002 [ms]
[OGL LOG][Proc: 0]solve: 279.536 [ms]
[OGL LOG][Proc: 0]copy_x_back: 0.453 [ms]
[OGL LOG][lduLduBase.H:380] 
Statistics:
	Time per iteration: 413 [mu s]
	Time per iteration and DOF: 0.413000 [ns]
	Retrieve results bandwith 2.963000 [GByte/s]
nonehipGKOCG:  Solving for p, Initial residual = 0.00733676, Final residual = 7.58498e-05, No Iterations 676
linear solve p 296781
time step continuity errors : sum local = 1.85536e-09, global = 1.20336e-21, cumulative = 6.0886e-21
ExecutionTime = 13.34 s  ClockTime = 13 s

Time = 0.0013

Courant Number mean: 0.00748301 max: 0.0904387
DILUPBiCGStab:  Solving for Ux, Initial residual = 0.0134671, Final residual = 4.6022e-08, No Iterations 5
DILUPBiCGStab:  Solving for Uy, Initial residual = 0.0184652, Final residual = 3.16337e-08, No Iterations 5
DILUPBiCGStab:  Solving for Uz, Initial residual = 0.0350479, Final residual = 9.64388e-08, No Iterations 5
linear solve U 135097
[OGL LOG][Proc: 0]global_index_init: 0.029 [ms]
[OGL LOG][Proc: 0]global_index_init: 0.003 [ms]
[OGL LOG][Proc: 0]update_host_matrix_data: 11.714 [ms]
[OGL LOG][Proc: 0]gather_global_matrix: 0 [ms]
[OGL LOG][Proc: 0]generate_distributed_matrix: 3.157 [ms]
[OGL LOG][Proc: 0]init_precond: 0.035 [ms]
[OGL LOG][Proc: 0]generate_solver: 0.002 [ms]
[OGL LOG][Proc: 0]solve: 272.343 [ms]
[OGL LOG][Proc: 0]copy_x_back: 0.44 [ms]
[OGL LOG][lduLduBase.H:380] 
Statistics:
	Time per iteration: 402 [mu s]
	Time per iteration and DOF: 0.402000 [ns]
	Retrieve results bandwith 3.051000 [GByte/s]
nonehipGKOCG:  Solving for p, Initial residual = 0.00804945, Final residual = 8.87788e-05, No Iterations 676
linear solve p 289688
time step continuity errors : sum local = 2.17421e-09, global = -3.19268e-22, cumulative = 5.76934e-21
[OGL LOG][Proc: 0]global_index_init: 0.019 [ms]
[OGL LOG][Proc: 0]global_index_init: 0.003 [ms]
[OGL LOG][Proc: 0]update_host_matrix_data: 11.774 [ms]
[OGL LOG][Proc: 0]gather_global_matrix: 0 [ms]
[OGL LOG][Proc: 0]generate_distributed_matrix: 3.183 [ms]
[OGL LOG][Proc: 0]init_precond: 0.035 [ms]
[OGL LOG][Proc: 0]generate_solver: 0.002 [ms]
[OGL LOG][Proc: 0]solve: 270.585 [ms]
[OGL LOG][Proc: 0]copy_x_back: 0.448 [ms]
[OGL LOG][lduLduBase.H:380] 
Statistics:
	Time per iteration: 400 [mu s]
	Time per iteration and DOF: 0.400000 [ns]
	Retrieve results bandwith 2.996000 [GByte/s]
nonehipGKOCG:  Solving for p, Initial residual = 0.00657215, Final residual = 6.1331e-05, No Iterations 676
linear solve p 288250
time step continuity errors : sum local = 1.50389e-09, global = -9.37325e-23, cumulative = 5.6756e-21
ExecutionTime = 14.12 s  ClockTime = 14 s

Time = 0.0014

Courant Number mean: 0.00772783 max: 0.0907903
DILUPBiCGStab:  Solving for Ux, Initial residual = 0.0123794, Final residual = 4.0223e-08, No Iterations 5
DILUPBiCGStab:  Solving for Uy, Initial residual = 0.0169325, Final residual = 2.8662e-08, No Iterations 5
DILUPBiCGStab:  Solving for Uz, Initial residual = 0.0323887, Final residual = 8.24507e-08, No Iterations 5
linear solve U 133755
[OGL LOG][Proc: 0]global_index_init: 0.022 [ms]
[OGL LOG][Proc: 0]global_index_init: 0.003 [ms]
[OGL LOG][Proc: 0]update_host_matrix_data: 11.616 [ms]
[OGL LOG][Proc: 0]gather_global_matrix: 0 [ms]
[OGL LOG][Proc: 0]generate_distributed_matrix: 3.132 [ms]
[OGL LOG][Proc: 0]init_precond: 0.035 [ms]
[OGL LOG][Proc: 0]generate_solver: 0.002 [ms]
[OGL LOG][Proc: 0]solve: 271.477 [ms]
[OGL LOG][Proc: 0]copy_x_back: 0.462 [ms]
[OGL LOG][lduLduBase.H:380] 
Statistics:
	Time per iteration: 401 [mu s]
	Time per iteration and DOF: 0.401000 [ns]
	Retrieve results bandwith 2.906000 [GByte/s]
nonehipGKOCG:  Solving for p, Initial residual = 0.0071916, Final residual = 8.14855e-05, No Iterations 676
linear solve p 288775
time step continuity errors : sum local = 2.00008e-09, global = 7.43408e-22, cumulative = 6.41901e-21
[OGL LOG][Proc: 0]global_index_init: 0.025 [ms]
[OGL LOG][Proc: 0]global_index_init: 0.003 [ms]
[OGL LOG][Proc: 0]update_host_matrix_data: 11.759 [ms]
[OGL LOG][Proc: 0]gather_global_matrix: 0 [ms]
[OGL LOG][Proc: 0]generate_distributed_matrix: 3.132 [ms]
[OGL LOG][Proc: 0]init_precond: 0.034 [ms]
[OGL LOG][Proc: 0]generate_solver: 0.002 [ms]
[OGL LOG][Proc: 0]solve: 272.732 [ms]
[OGL LOG][Proc: 0]copy_x_back: 0.448 [ms]
[OGL LOG][lduLduBase.H:380] 
Statistics:
	Time per iteration: 403 [mu s]
	Time per iteration and DOF: 0.403000 [ns]
	Retrieve results bandwith 2.996000 [GByte/s]
nonehipGKOCG:  Solving for p, Initial residual = 0.00589843, Final residual = 5.3932e-05, No Iterations 676
linear solve p 290213
time step continuity errors : sum local = 1.32526e-09, global = 8.82028e-22, cumulative = 7.30104e-21
ExecutionTime = 14.9 s  ClockTime = 15 s

Time = 0.0015

Courant Number mean: 0.00795861 max: 0.0911006
DILUPBiCGStab:  Solving for Ux, Initial residual = 0.0114471, Final residual = 3.55242e-08, No Iterations 5
DILUPBiCGStab:  Solving for Uy, Initial residual = 0.0156259, Final residual = 2.61569e-08, No Iterations 5
DILUPBiCGStab:  Solving for Uz, Initial residual = 0.0300847, Final residual = 7.10221e-08, No Iterations 5
linear solve U 138561
[OGL LOG][Proc: 0]global_index_init: 0.037 [ms]
[OGL LOG][Proc: 0]global_index_init: 0.003 [ms]
[OGL LOG][Proc: 0]update_host_matrix_data: 11.708 [ms]
[OGL LOG][Proc: 0]gather_global_matrix: 0 [ms]
[OGL LOG][Proc: 0]generate_distributed_matrix: 3.148 [ms]
[OGL LOG][Proc: 0]init_precond: 0.038 [ms]
[OGL LOG][Proc: 0]generate_solver: 0.002 [ms]
[OGL LOG][Proc: 0]solve: 275.44 [ms]
[OGL LOG][Proc: 0]copy_x_back: 0.44 [ms]
[OGL LOG][lduLduBase.H:380] 
Statistics:
	Time per iteration: 407 [mu s]
	Time per iteration and DOF: 0.407000 [ns]
	Retrieve results bandwith 3.051000 [GByte/s]
nonehipGKOCG:  Solving for p, Initial residual = 0.00650217, Final residual = 7.35181e-05, No Iterations 676
linear solve p 292972
time step continuity errors : sum local = 1.80818e-09, global = -6.92416e-22, cumulative = 6.60862e-21
[OGL LOG][Proc: 0]global_index_init: 0.011 [ms]
[OGL LOG][Proc: 0]global_index_init: 0.003 [ms]
[OGL LOG][Proc: 0]update_host_matrix_data: 11.701 [ms]
[OGL LOG][Proc: 0]gather_global_matrix: 0 [ms]
[OGL LOG][Proc: 0]generate_distributed_matrix: 3.299 [ms]
[OGL LOG][Proc: 0]init_precond: 0.039 [ms]
[OGL LOG][Proc: 0]generate_solver: 0.002 [ms]
[OGL LOG][Proc: 0]solve: 221.738 [ms]
[OGL LOG][Proc: 0]copy_x_back: 0.599 [ms]
[OGL LOG][lduLduBase.H:380] 
Statistics:
	Time per iteration: 409 [mu s]
	Time per iteration and DOF: 0.409000 [ns]
	Retrieve results bandwith 2.241000 [GByte/s]
nonehipGKOCG:  Solving for p, Initial residual = 0.00534473, Final residual = 9.88167e-05, No Iterations 541
linear solve p 239324
time step continuity errors : sum local = 2.46849e-09, global = -1.08671e-21, cumulative = 5.52191e-21
ExecutionTime = 15.64 s  ClockTime = 16 s

Time = 0.0016

Courant Number mean: 0.00817648 max: 0.091377
DILUPBiCGStab:  Solving for Ux, Initial residual = 0.0106401, Final residual = 3.16871e-08, No Iterations 5
DILUPBiCGStab:  Solving for Uy, Initial residual = 0.0145001, Final residual = 2.40214e-08, No Iterations 5
DILUPBiCGStab:  Solving for Uz, Initial residual = 0.0280947, Final residual = 6.30448e-08, No Iterations 5
linear solve U 135002
[OGL LOG][Proc: 0]global_index_init: 0.019 [ms]
[OGL LOG][Proc: 0]global_index_init: 0.003 [ms]
[OGL LOG][Proc: 0]update_host_matrix_data: 12.966 [ms]
[OGL LOG][Proc: 0]gather_global_matrix: 0 [ms]
[OGL LOG][Proc: 0]generate_distributed_matrix: 3.141 [ms]
[OGL LOG][Proc: 0]init_precond: 0.035 [ms]
[OGL LOG][Proc: 0]generate_solver: 0.002 [ms]
[OGL LOG][Proc: 0]solve: 187.586 [ms]
[OGL LOG][Proc: 0]copy_x_back: 0.44 [ms]
[OGL LOG][lduLduBase.H:380] 
Statistics:
	Time per iteration: 424 [mu s]
	Time per iteration and DOF: 0.424000 [ns]
	Retrieve results bandwith 3.051000 [GByte/s]
nonehipGKOCG:  Solving for p, Initial residual = 0.00596865, Final residual = 1.06869e-05, No Iterations 442
linear solve p 205670
time step continuity errors : sum local = 2.92188e-10, global = 8.95903e-22, cumulative = 6.41782e-21
[OGL LOG][Proc: 0]global_index_init: 0.036 [ms]
[OGL LOG][Proc: 0]global_index_init: 0.003 [ms]
[OGL LOG][Proc: 0]update_host_matrix_data: 11.837 [ms]
[OGL LOG][Proc: 0]gather_global_matrix: 0 [ms]
[OGL LOG][Proc: 0]generate_distributed_matrix: 3.158 [ms]
[OGL LOG][Proc: 0]init_precond: 0.034 [ms]
[OGL LOG][Proc: 0]generate_solver: 0.002 [ms]
[OGL LOG][Proc: 0]solve: 157.211 [ms]
[OGL LOG][Proc: 0]copy_x_back: 0.475 [ms]
[OGL LOG][lduLduBase.H:380] 
Statistics:
	Time per iteration: 439 [mu s]
	Time per iteration and DOF: 0.439000 [ns]
	Retrieve results bandwith 2.826000 [GByte/s]
nonehipGKOCG:  Solving for p, Initial residual = 0.00486589, Final residual = 1.40522e-05, No Iterations 358
linear solve p 174589
time step continuity errors : sum local = 3.86992e-10, global = 5.72088e-22, cumulative = 6.9899e-21
ExecutionTime = 16.22 s  ClockTime = 16 s

Time = 0.0017

Courant Number mean: 0.00838248 max: 0.0916252
DILUPBiCGStab:  Solving for Ux, Initial residual = 0.00993242, Final residual = 2.85453e-08, No Iterations 5
DILUPBiCGStab:  Solving for Uy, Initial residual = 0.0135174, Final residual = 2.2168e-08, No Iterations 5
DILUPBiCGStab:  Solving for Uz, Initial residual = 0.026359, Final residual = 5.4442e-08, No Iterations 5
linear solve U 140180
[OGL LOG][Proc: 0]global_index_init: 0.028 [ms]
[OGL LOG][Proc: 0]global_index_init: 0.003 [ms]
[OGL LOG][Proc: 0]update_host_matrix_data: 11.667 [ms]
[OGL LOG][Proc: 0]gather_global_matrix: 0 [ms]
[OGL LOG][Proc: 0]generate_distributed_matrix: 3.151 [ms]
[OGL LOG][Proc: 0]init_precond: 0.035 [ms]
[OGL LOG][Proc: 0]generate_solver: 0.002 [ms]
[OGL LOG][Proc: 0]solve: 146.284 [ms]
[OGL LOG][Proc: 0]copy_x_back: 0.439 [ms]
[OGL LOG][lduLduBase.H:380] 
Statistics:
	Time per iteration: 495 [mu s]
	Time per iteration and DOF: 0.495000 [ns]
	Retrieve results bandwith 3.058000 [GByte/s]
nonehipGKOCG:  Solving for p, Initial residual = 0.00535979, Final residual = 3.24794e-05, No Iterations 295
linear solve p 163585
time step continuity errors : sum local = 8.12486e-10, global = 6.23512e-22, cumulative = 7.61342e-21
[OGL LOG][Proc: 0]global_index_init: 0.033 [ms]
[OGL LOG][Proc: 0]global_index_init: 0.003 [ms]
[OGL LOG][Proc: 0]update_host_matrix_data: 11.748 [ms]
[OGL LOG][Proc: 0]gather_global_matrix: 0 [ms]
[OGL LOG][Proc: 0]generate_distributed_matrix: 3.341 [ms]
[OGL LOG][Proc: 0]init_precond: 0.036 [ms]
[OGL LOG][Proc: 0]generate_solver: 0.002 [ms]
[OGL LOG][Proc: 0]solve: 125.335 [ms]
[OGL LOG][Proc: 0]copy_x_back: 0.449 [ms]
[OGL LOG][lduLduBase.H:380] 
Statistics:
	Time per iteration: 472 [mu s]
	Time per iteration and DOF: 0.472000 [ns]
	Retrieve results bandwith 2.990000 [GByte/s]
nonehipGKOCG:  Solving for p, Initial residual = 0.00439738, Final residual = 7.72224e-05, No Iterations 265
linear solve p 142801
time step continuity errors : sum local = 1.93805e-09, global = 9.31369e-22, cumulative = 8.54479e-21
ExecutionTime = 16.74 s  ClockTime = 17 s

Time = 0.0018

Courant Number mean: 0.00857955 max: 0.0918497
DILUPBiCGStab:  Solving for Ux, Initial residual = 0.00931085, Final residual = 2.59236e-08, No Iterations 5
DILUPBiCGStab:  Solving for Uy, Initial residual = 0.0126548, Final residual = 2.05597e-08, No Iterations 5
DILUPBiCGStab:  Solving for Uz, Initial residual = 0.024771, Final residual = 4.86471e-08, No Iterations 5
linear solve U 134728
[OGL LOG][Proc: 0]global_index_init: 0.019 [ms]
[OGL LOG][Proc: 0]global_index_init: 0.003 [ms]
[OGL LOG][Proc: 0]update_host_matrix_data: 11.717 [ms]
[OGL LOG][Proc: 0]gather_global_matrix: 0 [ms]
[OGL LOG][Proc: 0]generate_distributed_matrix: 3.121 [ms]
[OGL LOG][Proc: 0]init_precond: 0.035 [ms]
[OGL LOG][Proc: 0]generate_solver: 0.002 [ms]
[OGL LOG][Proc: 0]solve: 128.257 [ms]
[OGL LOG][Proc: 0]copy_x_back: 0.44 [ms]
[OGL LOG][lduLduBase.H:380] 
Statistics:
	Time per iteration: 473 [mu s]
	Time per iteration and DOF: 0.473000 [ns]
	Retrieve results bandwith 3.051000 [GByte/s]
nonehipGKOCG:  Solving for p, Initial residual = 0.00502418, Final residual = 7.14683e-05, No Iterations 271
linear solve p 145418
time step continuity errors : sum local = 1.77319e-09, global = 1.19541e-21, cumulative = 9.74019e-21
[OGL LOG][Proc: 0]global_index_init: 0.019 [ms]
[OGL LOG][Proc: 0]global_index_init: 0.003 [ms]
[OGL LOG][Proc: 0]update_host_matrix_data: 11.81 [ms]
[OGL LOG][Proc: 0]gather_global_matrix: 0 [ms]
[OGL LOG][Proc: 0]generate_distributed_matrix: 3.17 [ms]
[OGL LOG][Proc: 0]init_precond: 0.035 [ms]
[OGL LOG][Proc: 0]generate_solver: 0.002 [ms]
[OGL LOG][Proc: 0]solve: 124.807 [ms]
[OGL LOG][Proc: 0]copy_x_back: 0.45 [ms]
[OGL LOG][lduLduBase.H:380] 
Statistics:
	Time per iteration: 478 [mu s]
	Time per iteration and DOF: 0.478000 [ns]
	Retrieve results bandwith 2.983000 [GByte/s]
nonehipGKOCG:  Solving for p, Initial residual = 0.00413366, Final residual = 8.74926e-05, No Iterations 261
linear solve p 142035
time step continuity errors : sum local = 2.18812e-09, global = 3.30614e-23, cumulative = 9.77326e-21
ExecutionTime = 17.24 s  ClockTime = 17 s

Time = 0.0019

Courant Number mean: 0.00876812 max: 0.092054
DILUPBiCGStab:  Solving for Ux, Initial residual = 0.00875809, Final residual = 2.37225e-08, No Iterations 5
DILUPBiCGStab:  Solving for Uy, Initial residual = 0.0118905, Final residual = 1.91555e-08, No Iterations 5
DILUPBiCGStab:  Solving for Uz, Initial residual = 0.0233606, Final residual = 4.39061e-08, No Iterations 5
linear solve U 133770
[OGL LOG][Proc: 0]global_index_init: 0.022 [ms]
[OGL LOG][Proc: 0]global_index_init: 0.003 [ms]
[OGL LOG][Proc: 0]update_host_matrix_data: 11.625 [ms]
[OGL LOG][Proc: 0]gather_global_matrix: 0 [ms]
[OGL LOG][Proc: 0]generate_distributed_matrix: 3.151 [ms]
[OGL LOG][Proc: 0]init_precond: 0.038 [ms]
[OGL LOG][Proc: 0]generate_solver: 0.002 [ms]
[OGL LOG][Proc: 0]solve: 131.196 [ms]
[OGL LOG][Proc: 0]copy_x_back: 0.439 [ms]
[OGL LOG][lduLduBase.H:380] 
Statistics:
	Time per iteration: 484 [mu s]
	Time per iteration and DOF: 0.484000 [ns]
	Retrieve results bandwith 3.058000 [GByte/s]
nonehipGKOCG:  Solving for p, Initial residual = 0.00468593, Final residual = 6.93472e-05, No Iterations 271
linear solve p 148594
time step continuity errors : sum local = 1.71727e-09, global = 5.11189e-22, cumulative = 1.02844e-20
[OGL LOG][Proc: 0]global_index_init: 0.015 [ms]
[OGL LOG][Proc: 0]global_index_init: 0.003 [ms]
[OGL LOG][Proc: 0]update_host_matrix_data: 11.674 [ms]
[OGL LOG][Proc: 0]gather_global_matrix: 0 [ms]
[OGL LOG][Proc: 0]generate_distributed_matrix: 3.131 [ms]
[OGL LOG][Proc: 0]init_precond: 0.035 [ms]
[OGL LOG][Proc: 0]generate_solver: 0.002 [ms]
[OGL LOG][Proc: 0]solve: 124.653 [ms]
[OGL LOG][Proc: 0]copy_x_back: 0.455 [ms]
[OGL LOG][lduLduBase.H:380] 
Statistics:
	Time per iteration: 477 [mu s]
	Time per iteration and DOF: 0.477000 [ns]
	Retrieve results bandwith 2.950000 [GByte/s]
nonehipGKOCG:  Solving for p, Initial residual = 0.0038585, Final residual = 8.12076e-05, No Iterations 261
linear solve p 141806
time step continuity errors : sum local = 2.02865e-09, global = 9.63061e-22, cumulative = 1.12475e-20
ExecutionTime = 17.74 s  ClockTime = 18 s

Time = 0.002

Courant Number mean: 0.00894848 max: 0.0922409
DILUPBiCGStab:  Solving for Ux, Initial residual = 0.00826091, Final residual = 2.186e-08, No Iterations 5
DILUPBiCGStab:  Solving for Uy, Initial residual = 0.0112089, Final residual = 1.79191e-08, No Iterations 5
DILUPBiCGStab:  Solving for Uz, Initial residual = 0.0220945, Final residual = 3.99329e-08, No Iterations 5
linear solve U 138264
[OGL LOG][Proc: 0]global_index_init: 0.027 [ms]
[OGL LOG][Proc: 0]global_index_init: 0.003 [ms]
[OGL LOG][Proc: 0]update_host_matrix_data: 11.597 [ms]
[OGL LOG][Proc: 0]gather_global_matrix: 0 [ms]
[OGL LOG][Proc: 0]generate_distributed_matrix: 3.122 [ms]
[OGL LOG][Proc: 0]init_precond: 0.035 [ms]
[OGL LOG][Proc: 0]generate_solver: 0.002 [ms]
[OGL LOG][Proc: 0]solve: 125.583 [ms]
[OGL LOG][Proc: 0]copy_x_back: 0.444 [ms]
[OGL LOG][lduLduBase.H:380] 
Statistics:
	Time per iteration: 481 [mu s]
	Time per iteration and DOF: 0.481000 [ns]
	Retrieve results bandwith 3.023000 [GByte/s]
nonehipGKOCG:  Solving for p, Initial residual = 0.00432742, Final residual = 9.35467e-05, No Iterations 261
linear solve p 142791
time step continuity errors : sum local = 2.32124e-09, global = 6.50823e-22, cumulative = 1.18983e-20
[OGL LOG][Proc: 0]global_index_init: 0.021 [ms]
[OGL LOG][Proc: 0]global_index_init: 0.003 [ms]
[OGL LOG][Proc: 0]update_host_matrix_data: 11.738 [ms]
[OGL LOG][Proc: 0]gather_global_matrix: 0 [ms]
[OGL LOG][Proc: 0]generate_distributed_matrix: 3.116 [ms]
[OGL LOG][Proc: 0]init_precond: 0.036 [ms]
[OGL LOG][Proc: 0]generate_solver: 0.002 [ms]
[OGL LOG][Proc: 0]solve: 124.994 [ms]
[OGL LOG][Proc: 0]copy_x_back: 0.451 [ms]
[OGL LOG][lduLduBase.H:380] 
Statistics:
	Time per iteration: 478 [mu s]
	Time per iteration and DOF: 0.478000 [ns]
	Retrieve results bandwith 2.976000 [GByte/s]
nonehipGKOCG:  Solving for p, Initial residual = 0.00359873, Final residual = 6.86309e-05, No Iterations 261
linear solve p 142507
time step continuity errors : sum local = 1.71332e-09, global = 8.03864e-23, cumulative = 1.19787e-20
ExecutionTime = 18.23 s  ClockTime = 18 s

End

Finalising parallel run
================================================================================
