hash: 5e7757d4c43ad8b5d361640897016067
/*---------------------------------------------------------------------------*\
| =========                 |                                                 |
| \\      /  F ield         | OpenFOAM: The Open Source CFD Toolbox           |
|  \\    /   O peration     | Version:  2112                                  |
|   \\  /    A nd           | Website:  www.openfoam.com                      |
|    \\/     M anipulation  |                                                 |
\*---------------------------------------------------------------------------*/
Build  : d44c8318f0-20220111 OPENFOAM=2112 version=v2112
Arch   : "LSB;label=32;scalar=64"
Exec   : icoFoam -parallel
Date   : Jun 26 2022
Time   : 21:15:20
Host   : hkn0427.localdomain
PID    : 2104901
I/O    : uncollated
Case   : /hkfs/work/workspace/scratch/eq4036-lidDrivenCavity/simple/mesh/400/matrix_solver/CG_NoPrecond_CUDA/mpiRank_gko/4/base
nProcs : 4
Hosts  :
(
    (hkn0427.localdomain 4)
)
Pstream initialized with:
    floatTransfer      : 0
    nProcsSimpleSum    : 0
    commsType          : nonBlocking
    polling iterations : 0
trapFpe: Floating point exception trapping enabled (FOAM_SIGFPE).
fileModificationChecking : Monitoring run-time modified files using timeStampMaster (fileModificationSkew 5, maxFileModificationPolls 20)
allowSystemOperations : Allowing user-supplied system call operations

// * * * * * * * * * * * * * * * * * * * * * * * * * * * * * * * * * * * * * //
Create time

Create mesh for time = 0


PISO: Operating solver in PISO mode

Reading transportProperties

Reading field p

Reading field U

Reading/calculating face flux field phi


Starting time loop

Time = 2.5e-05

Courant Number mean: 0 max: 0
DILUPBiCGStab:  Solving for Ux, Initial residual = 1, Final residual = 0.00118713, No Iterations 5
DILUPBiCGStab:  Solving for Uy:  solution singularity
DILUPBiCGStab:  Solving for Uz:  solution singularity
linear solve U 10956417
[OGL LOG][Proc: 0]global_index_init: 0.976 [ms]
[OGL LOG][Proc: 0]global_index_init: 0.001 [ms]
[OGL LOG][Proc: 0]init_host_sparsity_pattern: 1.18845e+06 [ms]
[OGL LOG][Proc: 0]update_host_matrix_data: 408.358 [ms]
[OGL LOG][Proc: 0]convert_coo_to_csr: 1690.94 [ms]
[OGL LOG][lduLduBase.H:153] Initialising OGL
	Version:  484b851
	branch: HEAD 
	Ginkgo version: 1.5.0(develop)
	MPI is GPU aware: 1)
	Forces host buffer based communication: 1
[OGL LOG][Proc: 0]gather_global_matrix: 0.005 [ms]
[OGL LOG][Proc: 0]generate_distributed_matrix: 212.762 [ms]
[OGL LOG][Proc: 0]init_precond: 0.126 [ms]
[OGL LOG][Proc: 0]generate_solver: 0.036 [ms]
[OGL LOG][Proc: 0]solve: 18513.6 [ms]
[OGL LOG][Proc: 0]copy_x_back: 44.997 [ms]
[OGL LOG][lduLduBase.H:380] 
Statistics:
	Time per iteration: 5684 [mu s]
	Time per iteration and DOF: 0.088813 [ns]
	Retrieve results bandwith 2.844000 [GByte/s]
nonecudaGKOCG:  Solving for p, Initial residual = 1, Final residual = 9.99662e-05, No Iterations 3257
linear solve p 1211943320
time step continuity errors : sum local = 2.41015e-10, global = 1.49604e-23, cumulative = 1.49604e-23
[OGL LOG][Proc: 0]global_index_init: 0.007 [ms]
[OGL LOG][Proc: 0]global_index_init: 0.001 [ms]
[OGL LOG][Proc: 0]update_host_matrix_data: 430.84 [ms]
[OGL LOG][Proc: 0]gather_global_matrix: 0 [ms]
[OGL LOG][Proc: 0]generate_distributed_matrix: 217.837 [ms]
[OGL LOG][Proc: 0]init_precond: 0.035 [ms]
[OGL LOG][Proc: 0]generate_solver: 0.001 [ms]
[OGL LOG][Proc: 0]solve: 17853.7 [ms]
[OGL LOG][Proc: 0]copy_x_back: 63.095 [ms]
[OGL LOG][lduLduBase.H:380] 
Statistics:
	Time per iteration: 5491 [mu s]
	Time per iteration and DOF: 0.085797 [ns]
	Retrieve results bandwith 2.028000 [GByte/s]
nonecudaGKOCG:  Solving for p, Initial residual = 0.716144, Final residual = 7.57893e-05, No Iterations 3251
linear solve p 18701132
time step continuity errors : sum local = 2.46575e-10, global = -2.22638e-23, cumulative = -7.30346e-24
ExecutionTime = 1307.21 s  ClockTime = 1312 s

Time = 5e-05

Courant Number mean: 0.00116777 max: 0.0751289
DILUPBiCGStab:  Solving for Ux, Initial residual = 0.159858, Final residual = 0.000699206, No Iterations 5
DILUPBiCGStab:  Solving for Uy, Initial residual = 0.348607, Final residual = 0.000549934, No Iterations 5
DILUPBiCGStab:  Solving for Uz, Initial residual = 0.997113, Final residual = 0.00258422, No Iterations 5
linear solve U 22172533
[OGL LOG][Proc: 0]global_index_init: 0.007 [ms]
[OGL LOG][Proc: 0]global_index_init: 0.001 [ms]
[OGL LOG][Proc: 0]update_host_matrix_data: 431.987 [ms]
[OGL LOG][Proc: 0]gather_global_matrix: 0 [ms]
[OGL LOG][Proc: 0]generate_distributed_matrix: 216.503 [ms]
[OGL LOG][Proc: 0]init_precond: 0.037 [ms]
[OGL LOG][Proc: 0]generate_solver: 0.002 [ms]
[OGL LOG][Proc: 0]solve: 17700.8 [ms]
[OGL LOG][Proc: 0]copy_x_back: 63.014 [ms]
[OGL LOG][lduLduBase.H:380] 
Statistics:
	Time per iteration: 5444 [mu s]
	Time per iteration and DOF: 0.085062 [ns]
	Retrieve results bandwith 2.031000 [GByte/s]
nonecudaGKOCG:  Solving for p, Initial residual = 0.654917, Final residual = 4.2093e-05, No Iterations 3251
linear solve p 18565228
time step continuity errors : sum local = 1.47808e-10, global = 5.34743e-24, cumulative = -1.95603e-24
[OGL LOG][Proc: 0]global_index_init: 0.007 [ms]
[OGL LOG][Proc: 0]global_index_init: 0.002 [ms]
[OGL LOG][Proc: 0]update_host_matrix_data: 433.294 [ms]
[OGL LOG][Proc: 0]gather_global_matrix: 0 [ms]
[OGL LOG][Proc: 0]generate_distributed_matrix: 209.927 [ms]
[OGL LOG][Proc: 0]init_precond: 0.033 [ms]
[OGL LOG][Proc: 0]generate_solver: 0.002 [ms]
[OGL LOG][Proc: 0]solve: 17730.2 [ms]
[OGL LOG][Proc: 0]copy_x_back: 62.314 [ms]
[OGL LOG][lduLduBase.H:380] 
Statistics:
	Time per iteration: 5453 [mu s]
	Time per iteration and DOF: 0.085203 [ns]
	Retrieve results bandwith 2.054000 [GByte/s]
nonecudaGKOCG:  Solving for p, Initial residual = 0.580445, Final residual = 3.65549e-05, No Iterations 3251
linear solve p 18566388
time step continuity errors : sum local = 1.30574e-10, global = 5.57216e-25, cumulative = -1.39882e-24
ExecutionTime = 1380.06 s  ClockTime = 1387 s

Time = 7.5e-05

Courant Number mean: 0.00178106 max: 0.0870165
DILUPBiCGStab:  Solving for Ux, Initial residual = 0.0661401, Final residual = 0.000197633, No Iterations 5
DILUPBiCGStab:  Solving for Uy, Initial residual = 0.138167, Final residual = 0.000139213, No Iterations 5
DILUPBiCGStab:  Solving for Uz, Initial residual = 0.426941, Final residual = 0.00125425, No Iterations 5
linear solve U 22072081
[OGL LOG][Proc: 0]global_index_init: 0.007 [ms]
[OGL LOG][Proc: 0]global_index_init: 0.002 [ms]
[OGL LOG][Proc: 0]update_host_matrix_data: 433.042 [ms]
[OGL LOG][Proc: 0]gather_global_matrix: 0 [ms]
[OGL LOG][Proc: 0]generate_distributed_matrix: 215.862 [ms]
[OGL LOG][Proc: 0]init_precond: 0.039 [ms]
[OGL LOG][Proc: 0]generate_solver: 0.002 [ms]
[OGL LOG][Proc: 0]solve: 17083.5 [ms]
[OGL LOG][Proc: 0]copy_x_back: 62.749 [ms]
[OGL LOG][lduLduBase.H:380] 
Statistics:
	Time per iteration: 5473 [mu s]
	Time per iteration and DOF: 0.085516 [ns]
	Retrieve results bandwith 2.039000 [GByte/s]
nonecudaGKOCG:  Solving for p, Initial residual = 0.556719, Final residual = 9.12387e-05, No Iterations 3121
linear solve p 17957740
time step continuity errors : sum local = 2.30742e-10, global = 2.53549e-23, cumulative = 2.39561e-23
[OGL LOG][Proc: 0]global_index_init: 0.008 [ms]
[OGL LOG][Proc: 0]global_index_init: 0.001 [ms]
[OGL LOG][Proc: 0]update_host_matrix_data: 432.677 [ms]
[OGL LOG][Proc: 0]gather_global_matrix: 0 [ms]
[OGL LOG][Proc: 0]generate_distributed_matrix: 211.785 [ms]
[OGL LOG][Proc: 0]init_precond: 0.029 [ms]
[OGL LOG][Proc: 0]generate_solver: 0.002 [ms]
[OGL LOG][Proc: 0]solve: 16984.5 [ms]
[OGL LOG][Proc: 0]copy_x_back: 61.955 [ms]
[OGL LOG][lduLduBase.H:380] 
Statistics:
	Time per iteration: 5477 [mu s]
	Time per iteration and DOF: 0.085578 [ns]
	Retrieve results bandwith 2.066000 [GByte/s]
nonecudaGKOCG:  Solving for p, Initial residual = 0.499621, Final residual = 9.28536e-05, No Iterations 3101
linear solve p 17821950
time step continuity errors : sum local = 2.29977e-10, global = 1.09807e-23, cumulative = 3.49368e-23
ExecutionTime = 1451.38 s  ClockTime = 1460 s

Time = 0.0001

Courant Number mean: 0.00220834 max: 0.0903159
DILUPBiCGStab:  Solving for Ux, Initial residual = 0.0436883, Final residual = 8.49378e-05, No Iterations 5
DILUPBiCGStab:  Solving for Uy, Initial residual = 0.0871973, Final residual = 5.74937e-05, No Iterations 5
DILUPBiCGStab:  Solving for Uz, Initial residual = 0.132512, Final residual = 0.00024808, No Iterations 5
linear solve U 21959480
[OGL LOG][Proc: 0]global_index_init: 0.007 [ms]
[OGL LOG][Proc: 0]global_index_init: 0.001 [ms]
[OGL LOG][Proc: 0]update_host_matrix_data: 434.531 [ms]
[OGL LOG][Proc: 0]gather_global_matrix: 0 [ms]
[OGL LOG][Proc: 0]generate_distributed_matrix: 224.172 [ms]
[OGL LOG][Proc: 0]init_precond: 0.039 [ms]
[OGL LOG][Proc: 0]generate_solver: 0.002 [ms]
[OGL LOG][Proc: 0]solve: 16973.5 [ms]
[OGL LOG][Proc: 0]copy_x_back: 62.646 [ms]
[OGL LOG][lduLduBase.H:380] 
Statistics:
	Time per iteration: 5473 [mu s]
	Time per iteration and DOF: 0.085516 [ns]
	Retrieve results bandwith 2.043000 [GByte/s]
nonecudaGKOCG:  Solving for p, Initial residual = 0.320064, Final residual = 6.31045e-05, No Iterations 3101
linear solve p 17844744
time step continuity errors : sum local = 1.35798e-10, global = -2.87147e-23, cumulative = 6.22211e-24
[OGL LOG][Proc: 0]global_index_init: 0.007 [ms]
[OGL LOG][Proc: 0]global_index_init: 0.001 [ms]
[OGL LOG][Proc: 0]update_host_matrix_data: 433.739 [ms]
[OGL LOG][Proc: 0]gather_global_matrix: 0 [ms]
[OGL LOG][Proc: 0]generate_distributed_matrix: 216.313 [ms]
[OGL LOG][Proc: 0]init_precond: 0.027 [ms]
[OGL LOG][Proc: 0]generate_solver: 0.001 [ms]
[OGL LOG][Proc: 0]solve: 16947.7 [ms]
[OGL LOG][Proc: 0]copy_x_back: 65.114 [ms]
[OGL LOG][lduLduBase.H:380] 
Statistics:
	Time per iteration: 5465 [mu s]
	Time per iteration and DOF: 0.085391 [ns]
	Retrieve results bandwith 1.965000 [GByte/s]
nonecudaGKOCG:  Solving for p, Initial residual = 0.265606, Final residual = 5.48244e-05, No Iterations 3101
linear solve p 17795170
time step continuity errors : sum local = 1.18857e-10, global = -3.84958e-24, cumulative = 2.37253e-24
ExecutionTime = 1522.47 s  ClockTime = 1534 s

Time = 0.000125

Courant Number mean: 0.00255413 max: 0.0919042
DILUPBiCGStab:  Solving for Ux, Initial residual = 0.0332573, Final residual = 5.10929e-05, No Iterations 5
DILUPBiCGStab:  Solving for Uy, Initial residual = 0.0629924, Final residual = 3.67497e-05, No Iterations 5
DILUPBiCGStab:  Solving for Uz, Initial residual = 0.0875516, Final residual = 0.000132997, No Iterations 5
linear solve U 22128791
[OGL LOG][Proc: 0]global_index_init: 0.007 [ms]
[OGL LOG][Proc: 0]global_index_init: 0.001 [ms]
[OGL LOG][Proc: 0]update_host_matrix_data: 432.859 [ms]
[OGL LOG][Proc: 0]gather_global_matrix: 0 [ms]
[OGL LOG][Proc: 0]generate_distributed_matrix: 216.516 [ms]
[OGL LOG][Proc: 0]init_precond: 0.039 [ms]
[OGL LOG][Proc: 0]generate_solver: 0.002 [ms]
[OGL LOG][Proc: 0]solve: 16965.6 [ms]
[OGL LOG][Proc: 0]copy_x_back: 62.948 [ms]
[OGL LOG][lduLduBase.H:380] 
Statistics:
	Time per iteration: 5470 [mu s]
	Time per iteration and DOF: 0.085469 [ns]
	Retrieve results bandwith 2.033000 [GByte/s]
nonecudaGKOCG:  Solving for p, Initial residual = 0.213874, Final residual = 5.90674e-05, No Iterations 3101
linear solve p 17810710
time step continuity errors : sum local = 1.12662e-10, global = 3.63309e-23, cumulative = 3.87034e-23
[OGL LOG][Proc: 0]global_index_init: 0.007 [ms]
[OGL LOG][Proc: 0]global_index_init: 0.001 [ms]
[OGL LOG][Proc: 0]update_host_matrix_data: 433.27 [ms]
[OGL LOG][Proc: 0]gather_global_matrix: 0 [ms]
[OGL LOG][Proc: 0]generate_distributed_matrix: 197.289 [ms]
[OGL LOG][Proc: 0]init_precond: 0.038 [ms]
[OGL LOG][Proc: 0]generate_solver: 0.002 [ms]
[OGL LOG][Proc: 0]solve: 16950 [ms]
[OGL LOG][Proc: 0]copy_x_back: 63.172 [ms]
[OGL LOG][lduLduBase.H:380] 
Statistics:
	Time per iteration: 5465 [mu s]
	Time per iteration and DOF: 0.085391 [ns]
	Retrieve results bandwith 2.026000 [GByte/s]
nonecudaGKOCG:  Solving for p, Initial residual = 0.180082, Final residual = 5.36237e-05, No Iterations 3101
linear solve p 17805841
time step continuity errors : sum local = 1.01872e-10, global = 1.69112e-23, cumulative = 5.56146e-23
ExecutionTime = 1593.72 s  ClockTime = 1607 s

Time = 0.00015

Courant Number mean: 0.00284935 max: 0.0928888
DILUPBiCGStab:  Solving for Ux, Initial residual = 0.0270451, Final residual = 3.35965e-05, No Iterations 5
DILUPBiCGStab:  Solving for Uy, Initial residual = 0.0494931, Final residual = 1.56885e-05, No Iterations 5
DILUPBiCGStab:  Solving for Uz, Initial residual = 0.0765412, Final residual = 9.85666e-05, No Iterations 5
linear solve U 22116206
[OGL LOG][Proc: 0]global_index_init: 0.007 [ms]
[OGL LOG][Proc: 0]global_index_init: 0.003 [ms]
[OGL LOG][Proc: 0]update_host_matrix_data: 433.521 [ms]
[OGL LOG][Proc: 0]gather_global_matrix: 0 [ms]
[OGL LOG][Proc: 0]generate_distributed_matrix: 216.504 [ms]
[OGL LOG][Proc: 0]init_precond: 0.038 [ms]
[OGL LOG][Proc: 0]generate_solver: 0.003 [ms]
[OGL LOG][Proc: 0]solve: 16998.5 [ms]
[OGL LOG][Proc: 0]copy_x_back: 63.063 [ms]
[OGL LOG][lduLduBase.H:380] 
Statistics:
	Time per iteration: 5481 [mu s]
	Time per iteration and DOF: 0.085641 [ns]
	Retrieve results bandwith 2.029000 [GByte/s]
nonecudaGKOCG:  Solving for p, Initial residual = 0.127254, Final residual = 2.89024e-05, No Iterations 3101
linear solve p 17843832
time step continuity errors : sum local = 5.34092e-11, global = -8.21948e-24, cumulative = 4.73952e-23
[OGL LOG][Proc: 0]global_index_init: 0.007 [ms]
[OGL LOG][Proc: 0]global_index_init: 0 [ms]
[OGL LOG][Proc: 0]update_host_matrix_data: 433.509 [ms]
[OGL LOG][Proc: 0]gather_global_matrix: 0 [ms]
[OGL LOG][Proc: 0]generate_distributed_matrix: 222.101 [ms]
[OGL LOG][Proc: 0]init_precond: 0.036 [ms]
[OGL LOG][Proc: 0]generate_solver: 0.002 [ms]
[OGL LOG][Proc: 0]solve: 16337.8 [ms]
[OGL LOG][Proc: 0]copy_x_back: 61.723 [ms]
[OGL LOG][lduLduBase.H:380] 
Statistics:
	Time per iteration: 5488 [mu s]
	Time per iteration and DOF: 0.085750 [ns]
	Retrieve results bandwith 2.073000 [GByte/s]
nonecudaGKOCG:  Solving for p, Initial residual = 0.104785, Final residual = 9.29527e-05, No Iterations 2977
linear solve p 17185728
time step continuity errors : sum local = 1.7199e-10, global = 2.16771e-23, cumulative = 6.90723e-23
ExecutionTime = 1664.42 s  ClockTime = 1680 s

Time = 0.000175

Courant Number mean: 0.00310981 max: 0.0935747
DILUPBiCGStab:  Solving for Ux, Initial residual = 0.0228865, Final residual = 2.37603e-05, No Iterations 5
DILUPBiCGStab:  Solving for Uy, Initial residual = 0.0407489, Final residual = 1.4234e-05, No Iterations 5
DILUPBiCGStab:  Solving for Uz, Initial residual = 0.0654786, Final residual = 6.31407e-05, No Iterations 5
linear solve U 22067365
[OGL LOG][Proc: 0]global_index_init: 0.007 [ms]
[OGL LOG][Proc: 0]global_index_init: 0.002 [ms]
[OGL LOG][Proc: 0]update_host_matrix_data: 433.945 [ms]
[OGL LOG][Proc: 0]gather_global_matrix: 0 [ms]
[OGL LOG][Proc: 0]generate_distributed_matrix: 215.602 [ms]
[OGL LOG][Proc: 0]init_precond: 0.035 [ms]
[OGL LOG][Proc: 0]generate_solver: 0.002 [ms]
[OGL LOG][Proc: 0]solve: 16930.8 [ms]
[OGL LOG][Proc: 0]copy_x_back: 61.839 [ms]
[OGL LOG][lduLduBase.H:380] 
Statistics:
	Time per iteration: 5470 [mu s]
	Time per iteration and DOF: 0.085469 [ns]
	Retrieve results bandwith 2.069000 [GByte/s]
nonecudaGKOCG:  Solving for p, Initial residual = 0.0870622, Final residual = 3.2251e-05, No Iterations 3095
linear solve p 17791469
time step continuity errors : sum local = 5.78053e-11, global = 4.64286e-23, cumulative = 1.15501e-22
[OGL LOG][Proc: 0]global_index_init: 0.007 [ms]
[OGL LOG][Proc: 0]global_index_init: 0.001 [ms]
[OGL LOG][Proc: 0]update_host_matrix_data: 432.673 [ms]
[OGL LOG][Proc: 0]gather_global_matrix: 0 [ms]
[OGL LOG][Proc: 0]generate_distributed_matrix: 194.222 [ms]
[OGL LOG][Proc: 0]init_precond: 0.028 [ms]
[OGL LOG][Proc: 0]generate_solver: 0.001 [ms]
[OGL LOG][Proc: 0]solve: 16794.3 [ms]
[OGL LOG][Proc: 0]copy_x_back: 63.015 [ms]
[OGL LOG][lduLduBase.H:380] 
Statistics:
	Time per iteration: 5459 [mu s]
	Time per iteration and DOF: 0.085297 [ns]
	Retrieve results bandwith 2.031000 [GByte/s]
nonecudaGKOCG:  Solving for p, Initial residual = 0.0724792, Final residual = 4.42668e-05, No Iterations 3076
linear solve p 17636084
time step continuity errors : sum local = 7.93478e-11, global = -6.70424e-23, cumulative = 4.84585e-23
ExecutionTime = 1735.46 s  ClockTime = 1753 s

Time = 0.0002

Courant Number mean: 0.00334434 max: 0.094089
DILUPBiCGStab:  Solving for Ux, Initial residual = 0.0198902, Final residual = 1.84268e-05, No Iterations 5
DILUPBiCGStab:  Solving for Uy, Initial residual = 0.0346112, Final residual = 6.59865e-06, No Iterations 5
DILUPBiCGStab:  Solving for Uz, Initial residual = 0.0579096, Final residual = 4.33942e-05, No Iterations 5
linear solve U 22072995
[OGL LOG][Proc: 0]global_index_init: 0.006 [ms]
[OGL LOG][Proc: 0]global_index_init: 0.001 [ms]
[OGL LOG][Proc: 0]update_host_matrix_data: 432.104 [ms]
[OGL LOG][Proc: 0]gather_global_matrix: 0 [ms]
[OGL LOG][Proc: 0]generate_distributed_matrix: 217.85 [ms]
[OGL LOG][Proc: 0]init_precond: 0.035 [ms]
[OGL LOG][Proc: 0]generate_solver: 0.001 [ms]
[OGL LOG][Proc: 0]solve: 16839.1 [ms]
[OGL LOG][Proc: 0]copy_x_back: 62.562 [ms]
[OGL LOG][lduLduBase.H:380] 
Statistics:
	Time per iteration: 5474 [mu s]
	Time per iteration and DOF: 0.085531 [ns]
	Retrieve results bandwith 2.045000 [GByte/s]
nonecudaGKOCG:  Solving for p, Initial residual = 0.0550864, Final residual = 3.63538e-05, No Iterations 3076
linear solve p 17704791
time step continuity errors : sum local = 6.42578e-11, global = 3.0118e-23, cumulative = 7.85765e-23
[OGL LOG][Proc: 0]global_index_init: 0.006 [ms]
[OGL LOG][Proc: 0]global_index_init: 0.001 [ms]
[OGL LOG][Proc: 0]update_host_matrix_data: 431.251 [ms]
[OGL LOG][Proc: 0]gather_global_matrix: 0 [ms]
[OGL LOG][Proc: 0]generate_distributed_matrix: 198.264 [ms]
[OGL LOG][Proc: 0]init_precond: 0.034 [ms]
[OGL LOG][Proc: 0]generate_solver: 0.002 [ms]
[OGL LOG][Proc: 0]solve: 16820.4 [ms]
[OGL LOG][Proc: 0]copy_x_back: 62.768 [ms]
[OGL LOG][lduLduBase.H:380] 
Statistics:
	Time per iteration: 5468 [mu s]
	Time per iteration and DOF: 0.085437 [ns]
	Retrieve results bandwith 2.039000 [GByte/s]
nonecudaGKOCG:  Solving for p, Initial residual = 0.0468658, Final residual = 3.20891e-05, No Iterations 3076
linear solve p 17675355
time step continuity errors : sum local = 5.67746e-11, global = -6.04603e-23, cumulative = 1.81162e-23
ExecutionTime = 1806.51 s  ClockTime = 1826 s

Time = 0.000225

Courant Number mean: 0.00355866 max: 0.0944924
DILUPBiCGStab:  Solving for Ux, Initial residual = 0.0176109, Final residual = 1.42004e-05, No Iterations 5
DILUPBiCGStab:  Solving for Uy, Initial residual = 0.030084, Final residual = 6.6324e-06, No Iterations 5
DILUPBiCGStab:  Solving for Uz, Initial residual = 0.0517155, Final residual = 3.13375e-05, No Iterations 5
linear solve U 22059355
[OGL LOG][Proc: 0]global_index_init: 0.007 [ms]
[OGL LOG][Proc: 0]global_index_init: 0.001 [ms]
[OGL LOG][Proc: 0]update_host_matrix_data: 433.328 [ms]
[OGL LOG][Proc: 0]gather_global_matrix: 0 [ms]
[OGL LOG][Proc: 0]generate_distributed_matrix: 216.627 [ms]
[OGL LOG][Proc: 0]init_precond: 0.041 [ms]
[OGL LOG][Proc: 0]generate_solver: 0.002 [ms]
[OGL LOG][Proc: 0]solve: 16189.8 [ms]
[OGL LOG][Proc: 0]copy_x_back: 62.679 [ms]
[OGL LOG][lduLduBase.H:380] 
Statistics:
	Time per iteration: 5482 [mu s]
	Time per iteration and DOF: 0.085656 [ns]
	Retrieve results bandwith 2.042000 [GByte/s]
nonecudaGKOCG:  Solving for p, Initial residual = 0.0406719, Final residual = 8.80766e-05, No Iterations 2953
linear solve p 17066884
time step continuity errors : sum local = 1.545e-10, global = -5.4757e-23, cumulative = -3.66408e-23
[OGL LOG][Proc: 0]global_index_init: 0.008 [ms]
[OGL LOG][Proc: 0]global_index_init: 0.001 [ms]
[OGL LOG][Proc: 0]update_host_matrix_data: 434.109 [ms]
[OGL LOG][Proc: 0]gather_global_matrix: 0 [ms]
[OGL LOG][Proc: 0]generate_distributed_matrix: 230.599 [ms]
[OGL LOG][Proc: 0]init_precond: 0.033 [ms]
[OGL LOG][Proc: 0]generate_solver: 0.002 [ms]
[OGL LOG][Proc: 0]solve: 16192.6 [ms]
[OGL LOG][Proc: 0]copy_x_back: 60.944 [ms]
[OGL LOG][lduLduBase.H:380] 
Statistics:
	Time per iteration: 5487 [mu s]
	Time per iteration and DOF: 0.085734 [ns]
	Retrieve results bandwith 2.100000 [GByte/s]
nonecudaGKOCG:  Solving for p, Initial residual = 0.0348616, Final residual = 8.26482e-05, No Iterations 2951
linear solve p 17047698
time step continuity errors : sum local = 1.45022e-10, global = -1.21909e-22, cumulative = -1.58549e-22
ExecutionTime = 1876.28 s  ClockTime = 1898 s

Time = 0.00025

Courant Number mean: 0.00375674 max: 0.0948201
DILUPBiCGStab:  Solving for Ux, Initial residual = 0.0158188, Final residual = 1.15626e-05, No Iterations 5
DILUPBiCGStab:  Solving for Uy, Initial residual = 0.0265871, Final residual = 4.05301e-06, No Iterations 5
DILUPBiCGStab:  Solving for Uz, Initial residual = 0.0464649, Final residual = 2.35129e-05, No Iterations 5
linear solve U 22027444
[OGL LOG][Proc: 0]global_index_init: 0.007 [ms]
[OGL LOG][Proc: 0]global_index_init: 0.001 [ms]
[OGL LOG][Proc: 0]update_host_matrix_data: 434.635 [ms]
[OGL LOG][Proc: 0]gather_global_matrix: 0 [ms]
[OGL LOG][Proc: 0]generate_distributed_matrix: 216.233 [ms]
[OGL LOG][Proc: 0]init_precond: 0.028 [ms]
[OGL LOG][Proc: 0]generate_solver: 0.001 [ms]
[OGL LOG][Proc: 0]solve: 16193.7 [ms]
[OGL LOG][Proc: 0]copy_x_back: 60.809 [ms]
[OGL LOG][lduLduBase.H:380] 
Statistics:
	Time per iteration: 5487 [mu s]
	Time per iteration and DOF: 0.085734 [ns]
	Retrieve results bandwith 2.104000 [GByte/s]
nonecudaGKOCG:  Solving for p, Initial residual = 0.0293886, Final residual = 7.50814e-05, No Iterations 2951
linear solve p 17054599
time step continuity errors : sum local = 1.3115e-10, global = 6.19559e-23, cumulative = -9.65935e-23
[OGL LOG][Proc: 0]global_index_init: 0.008 [ms]
[OGL LOG][Proc: 0]global_index_init: 0.001 [ms]
[OGL LOG][Proc: 0]update_host_matrix_data: 432.941 [ms]
[OGL LOG][Proc: 0]gather_global_matrix: 0 [ms]
[OGL LOG][Proc: 0]generate_distributed_matrix: 219.563 [ms]
[OGL LOG][Proc: 0]init_precond: 0.028 [ms]
[OGL LOG][Proc: 0]generate_solver: 0.001 [ms]
[OGL LOG][Proc: 0]solve: 16119.1 [ms]
[OGL LOG][Proc: 0]copy_x_back: 63.583 [ms]
[OGL LOG][lduLduBase.H:380] 
Statistics:
	Time per iteration: 5462 [mu s]
	Time per iteration and DOF: 0.085344 [ns]
	Retrieve results bandwith 2.013000 [GByte/s]
nonecudaGKOCG:  Solving for p, Initial residual = 0.0259123, Final residual = 6.4759e-05, No Iterations 2951
linear solve p 16966926
time step continuity errors : sum local = 1.1322e-10, global = -1.52822e-23, cumulative = -1.11876e-22
ExecutionTime = 1945.98 s  ClockTime = 1970 s

Time = 0.000275

Courant Number mean: 0.00394124 max: 0.0950931
DILUPBiCGStab:  Solving for Ux, Initial residual = 0.014366, Final residual = 9.41911e-06, No Iterations 5
DILUPBiCGStab:  Solving for Uy, Initial residual = 0.0238196, Final residual = 3.84466e-06, No Iterations 5
DILUPBiCGStab:  Solving for Uz, Initial residual = 0.0422406, Final residual = 1.84914e-05, No Iterations 5
linear solve U 22061877
[OGL LOG][Proc: 0]global_index_init: 0.008 [ms]
[OGL LOG][Proc: 0]global_index_init: 0.001 [ms]
[OGL LOG][Proc: 0]update_host_matrix_data: 432.435 [ms]
[OGL LOG][Proc: 0]gather_global_matrix: 0 [ms]
[OGL LOG][Proc: 0]generate_distributed_matrix: 216.886 [ms]
[OGL LOG][Proc: 0]init_precond: 0.034 [ms]
[OGL LOG][Proc: 0]generate_solver: 0.001 [ms]
[OGL LOG][Proc: 0]solve: 16177.8 [ms]
[OGL LOG][Proc: 0]copy_x_back: 61.293 [ms]
[OGL LOG][lduLduBase.H:380] 
Statistics:
	Time per iteration: 5482 [mu s]
	Time per iteration and DOF: 0.085656 [ns]
	Retrieve results bandwith 2.088000 [GByte/s]
nonecudaGKOCG:  Solving for p, Initial residual = 0.0234512, Final residual = 7.43527e-05, No Iterations 2951
linear solve p 17037843
time step continuity errors : sum local = 1.29643e-10, global = 2.5826e-23, cumulative = -8.60497e-23
[OGL LOG][Proc: 0]global_index_init: 0.008 [ms]
[OGL LOG][Proc: 0]global_index_init: 0 [ms]
[OGL LOG][Proc: 0]update_host_matrix_data: 432.171 [ms]
[OGL LOG][Proc: 0]gather_global_matrix: 0 [ms]
[OGL LOG][Proc: 0]generate_distributed_matrix: 194.941 [ms]
[OGL LOG][Proc: 0]init_precond: 0.029 [ms]
[OGL LOG][Proc: 0]generate_solver: 0.001 [ms]
[OGL LOG][Proc: 0]solve: 16167.5 [ms]
[OGL LOG][Proc: 0]copy_x_back: 63.592 [ms]
[OGL LOG][lduLduBase.H:380] 
Statistics:
	Time per iteration: 5478 [mu s]
	Time per iteration and DOF: 0.085594 [ns]
	Retrieve results bandwith 2.012000 [GByte/s]
nonecudaGKOCG:  Solving for p, Initial residual = 0.0210037, Final residual = 6.76068e-05, No Iterations 2951
linear solve p 17020764
time step continuity errors : sum local = 1.1793e-10, global = -1.18369e-23, cumulative = -9.78866e-23
ExecutionTime = 2015.79 s  ClockTime = 2042 s

Time = 0.0003

Courant Number mean: 0.00411426 max: 0.095325
DILUPBiCGStab:  Solving for Ux, Initial residual = 0.0131653, Final residual = 7.83664e-06, No Iterations 5
DILUPBiCGStab:  Solving for Uy, Initial residual = 0.0215632, Final residual = 2.91958e-06, No Iterations 5
DILUPBiCGStab:  Solving for Uz, Initial residual = 0.0387919, Final residual = 1.48084e-05, No Iterations 5
linear solve U 22052466
[OGL LOG][Proc: 0]global_index_init: 0.006 [ms]
[OGL LOG][Proc: 0]global_index_init: 0.002 [ms]
[OGL LOG][Proc: 0]update_host_matrix_data: 432.065 [ms]
[OGL LOG][Proc: 0]gather_global_matrix: 0 [ms]
[OGL LOG][Proc: 0]generate_distributed_matrix: 215.938 [ms]
[OGL LOG][Proc: 0]init_precond: 0.034 [ms]
[OGL LOG][Proc: 0]generate_solver: 0.002 [ms]
[OGL LOG][Proc: 0]solve: 16170.1 [ms]
[OGL LOG][Proc: 0]copy_x_back: 62.812 [ms]
[OGL LOG][lduLduBase.H:380] 
Statistics:
	Time per iteration: 5479 [mu s]
	Time per iteration and DOF: 0.085609 [ns]
	Retrieve results bandwith 2.037000 [GByte/s]
nonecudaGKOCG:  Solving for p, Initial residual = 0.0184775, Final residual = 5.49929e-05, No Iterations 2951
linear solve p 17052429
time step continuity errors : sum local = 9.583e-11, global = 6.4676e-24, cumulative = -9.1419e-23
[OGL LOG][Proc: 0]global_index_init: 0.007 [ms]
[OGL LOG][Proc: 0]global_index_init: 0.001 [ms]
[OGL LOG][Proc: 0]update_host_matrix_data: 432.869 [ms]
[OGL LOG][Proc: 0]gather_global_matrix: 0 [ms]
[OGL LOG][Proc: 0]generate_distributed_matrix: 228.621 [ms]
[OGL LOG][Proc: 0]init_precond: 0.028 [ms]
[OGL LOG][Proc: 0]generate_solver: 0.001 [ms]
[OGL LOG][Proc: 0]solve: 16163.8 [ms]
[OGL LOG][Proc: 0]copy_x_back: 61.137 [ms]
[OGL LOG][lduLduBase.H:380] 
Statistics:
	Time per iteration: 5477 [mu s]
	Time per iteration and DOF: 0.085578 [ns]
	Retrieve results bandwith 2.093000 [GByte/s]
nonecudaGKOCG:  Solving for p, Initial residual = 0.0169599, Final residual = 4.96711e-05, No Iterations 2951
linear solve p 17016008
time step continuity errors : sum local = 8.66118e-11, global = 5.91143e-23, cumulative = -3.23047e-23
ExecutionTime = 2085.56 s  ClockTime = 2113 s

Time = 0.000325

Courant Number mean: 0.0042775 max: 0.0955252
DILUPBiCGStab:  Solving for Ux, Initial residual = 0.012153, Final residual = 6.56252e-06, No Iterations 5
DILUPBiCGStab:  Solving for Uy, Initial residual = 0.019696, Final residual = 2.68293e-06, No Iterations 5
DILUPBiCGStab:  Solving for Uz, Initial residual = 0.0360102, Final residual = 1.2172e-05, No Iterations 5
linear solve U 22063558
[OGL LOG][Proc: 0]global_index_init: 0.007 [ms]
[OGL LOG][Proc: 0]global_index_init: 0.001 [ms]
[OGL LOG][Proc: 0]update_host_matrix_data: 432.484 [ms]
[OGL LOG][Proc: 0]gather_global_matrix: 0 [ms]
[OGL LOG][Proc: 0]generate_distributed_matrix: 218.034 [ms]
[OGL LOG][Proc: 0]init_precond: 0.034 [ms]
[OGL LOG][Proc: 0]generate_solver: 0.002 [ms]
[OGL LOG][Proc: 0]solve: 16176.6 [ms]
[OGL LOG][Proc: 0]copy_x_back: 62.513 [ms]
[OGL LOG][lduLduBase.H:380] 
Statistics:
	Time per iteration: 5481 [mu s]
	Time per iteration and DOF: 0.085641 [ns]
	Retrieve results bandwith 2.047000 [GByte/s]
nonecudaGKOCG:  Solving for p, Initial residual = 0.015941, Final residual = 5.9556e-05, No Iterations 2951
linear solve p 17036529
time step continuity errors : sum local = 1.0371e-10, global = -8.4813e-23, cumulative = -1.17118e-22
[OGL LOG][Proc: 0]global_index_init: 0.01 [ms]
[OGL LOG][Proc: 0]global_index_init: 0.001 [ms]
[OGL LOG][Proc: 0]update_host_matrix_data: 434.186 [ms]
[OGL LOG][Proc: 0]gather_global_matrix: 0 [ms]
[OGL LOG][Proc: 0]generate_distributed_matrix: 211.676 [ms]
[OGL LOG][Proc: 0]init_precond: 0.028 [ms]
[OGL LOG][Proc: 0]generate_solver: 0.002 [ms]
[OGL LOG][Proc: 0]solve: 16153.7 [ms]
[OGL LOG][Proc: 0]copy_x_back: 63.586 [ms]
[OGL LOG][lduLduBase.H:380] 
Statistics:
	Time per iteration: 5473 [mu s]
	Time per iteration and DOF: 0.085516 [ns]
	Retrieve results bandwith 2.013000 [GByte/s]
nonecudaGKOCG:  Solving for p, Initial residual = 0.0147292, Final residual = 5.21506e-05, No Iterations 2951
linear solve p 16983529
time step continuity errors : sum local = 9.08516e-11, global = 1.85449e-23, cumulative = -9.85728e-23
ExecutionTime = 2155.3 s  ClockTime = 2185 s

Time = 0.00035

Courant Number mean: 0.00443218 max: 0.0957004
DILUPBiCGStab:  Solving for Ux, Initial residual = 0.0112886, Final residual = 5.56407e-06, No Iterations 5
DILUPBiCGStab:  Solving for Uy, Initial residual = 0.0181199, Final residual = 2.27495e-06, No Iterations 5
DILUPBiCGStab:  Solving for Uz, Initial residual = 0.0333341, Final residual = 9.95726e-06, No Iterations 5
linear solve U 22016444
[OGL LOG][Proc: 0]global_index_init: 0.006 [ms]
[OGL LOG][Proc: 0]global_index_init: 0.001 [ms]
[OGL LOG][Proc: 0]update_host_matrix_data: 435.058 [ms]
[OGL LOG][Proc: 0]gather_global_matrix: 0 [ms]
[OGL LOG][Proc: 0]generate_distributed_matrix: 215.628 [ms]
[OGL LOG][Proc: 0]init_precond: 0.039 [ms]
[OGL LOG][Proc: 0]generate_solver: 0.002 [ms]
[OGL LOG][Proc: 0]solve: 16183.1 [ms]
[OGL LOG][Proc: 0]copy_x_back: 61.838 [ms]
[OGL LOG][lduLduBase.H:380] 
Statistics:
	Time per iteration: 5483 [mu s]
	Time per iteration and DOF: 0.085672 [ns]
	Retrieve results bandwith 2.069000 [GByte/s]
nonecudaGKOCG:  Solving for p, Initial residual = 0.0136751, Final residual = 4.93095e-05, No Iterations 2951
linear solve p 17045128
time step continuity errors : sum local = 8.59106e-11, global = -1.29281e-22, cumulative = -2.27853e-22
[OGL LOG][Proc: 0]global_index_init: 0.007 [ms]
[OGL LOG][Proc: 0]global_index_init: 0.001 [ms]
[OGL LOG][Proc: 0]update_host_matrix_data: 433.882 [ms]
[OGL LOG][Proc: 0]gather_global_matrix: 0 [ms]
[OGL LOG][Proc: 0]generate_distributed_matrix: 206.27 [ms]
[OGL LOG][Proc: 0]init_precond: 0.029 [ms]
[OGL LOG][Proc: 0]generate_solver: 0.002 [ms]
[OGL LOG][Proc: 0]solve: 16165 [ms]
[OGL LOG][Proc: 0]copy_x_back: 63.152 [ms]
[OGL LOG][lduLduBase.H:380] 
Statistics:
	Time per iteration: 5477 [mu s]
	Time per iteration and DOF: 0.085578 [ns]
	Retrieve results bandwith 2.026000 [GByte/s]
nonecudaGKOCG:  Solving for p, Initial residual = 0.0128041, Final residual = 4.31267e-05, No Iterations 2951
linear solve p 17030470
time step continuity errors : sum local = 7.51755e-11, global = 1.2505e-22, cumulative = -1.02803e-22
ExecutionTime = 2225.01 s  ClockTime = 2257 s

Time = 0.000375

Courant Number mean: 0.00457926 max: 0.0958552
DILUPBiCGStab:  Solving for Ux, Initial residual = 0.0105404, Final residual = 4.76081e-06, No Iterations 5
DILUPBiCGStab:  Solving for Uy, Initial residual = 0.0167753, Final residual = 2.07676e-06, No Iterations 5
DILUPBiCGStab:  Solving for Uz, Initial residual = 0.0310971, Final residual = 8.53314e-06, No Iterations 5
linear solve U 22092915
[OGL LOG][Proc: 0]global_index_init: 0.007 [ms]
[OGL LOG][Proc: 0]global_index_init: 0.001 [ms]
[OGL LOG][Proc: 0]update_host_matrix_data: 433.348 [ms]
[OGL LOG][Proc: 0]gather_global_matrix: 0 [ms]
[OGL LOG][Proc: 0]generate_distributed_matrix: 217.494 [ms]
[OGL LOG][Proc: 0]init_precond: 0.038 [ms]
[OGL LOG][Proc: 0]generate_solver: 0.001 [ms]
[OGL LOG][Proc: 0]solve: 16195.6 [ms]
[OGL LOG][Proc: 0]copy_x_back: 62.66 [ms]
[OGL LOG][lduLduBase.H:380] 
Statistics:
	Time per iteration: 5488 [mu s]
	Time per iteration and DOF: 0.085750 [ns]
	Retrieve results bandwith 2.042000 [GByte/s]
nonecudaGKOCG:  Solving for p, Initial residual = 0.0121003, Final residual = 4.15013e-05, No Iterations 2951
linear solve p 17062144
time step continuity errors : sum local = 7.22972e-11, global = 8.6235e-23, cumulative = -1.65684e-23
[OGL LOG][Proc: 0]global_index_init: 0.007 [ms]
[OGL LOG][Proc: 0]global_index_init: 0.001 [ms]
[OGL LOG][Proc: 0]update_host_matrix_data: 434.578 [ms]
[OGL LOG][Proc: 0]gather_global_matrix: 0 [ms]
[OGL LOG][Proc: 0]generate_distributed_matrix: 201.591 [ms]
[OGL LOG][Proc: 0]init_precond: 0.03 [ms]
[OGL LOG][Proc: 0]generate_solver: 0.001 [ms]
[OGL LOG][Proc: 0]solve: 16171.8 [ms]
[OGL LOG][Proc: 0]copy_x_back: 62.697 [ms]
[OGL LOG][lduLduBase.H:380] 
Statistics:
	Time per iteration: 5480 [mu s]
	Time per iteration and DOF: 0.085625 [ns]
	Retrieve results bandwith 2.041000 [GByte/s]
nonecudaGKOCG:  Solving for p, Initial residual = 0.0113802, Final residual = 3.634e-05, No Iterations 2951
linear solve p 17011438
time step continuity errors : sum local = 6.33292e-11, global = -9.18597e-24, cumulative = -2.57544e-23
ExecutionTime = 2294.79 s  ClockTime = 2329 s

Time = 0.0004

Courant Number mean: 0.00471974 max: 0.0959935
DILUPBiCGStab:  Solving for Ux, Initial residual = 0.00988661, Final residual = 4.11437e-06, No Iterations 5
DILUPBiCGStab:  Solving for Uy, Initial residual = 0.0156124, Final residual = 1.848e-06, No Iterations 5
DILUPBiCGStab:  Solving for Uz, Initial residual = 0.0291947, Final residual = 7.19805e-06, No Iterations 5
linear solve U 22027042
[OGL LOG][Proc: 0]global_index_init: 0.006 [ms]
[OGL LOG][Proc: 0]global_index_init: 0.001 [ms]
[OGL LOG][Proc: 0]update_host_matrix_data: 432.37 [ms]
[OGL LOG][Proc: 0]gather_global_matrix: 0 [ms]
[OGL LOG][Proc: 0]generate_distributed_matrix: 215.65 [ms]
[OGL LOG][Proc: 0]init_precond: 0.039 [ms]
[OGL LOG][Proc: 0]generate_solver: 0.002 [ms]
[OGL LOG][Proc: 0]solve: 16173.3 [ms]
[OGL LOG][Proc: 0]copy_x_back: 62.659 [ms]
[OGL LOG][lduLduBase.H:380] 
Statistics:
	Time per iteration: 5480 [mu s]
	Time per iteration and DOF: 0.085625 [ns]
	Retrieve results bandwith 2.042000 [GByte/s]
nonecudaGKOCG:  Solving for p, Initial residual = 0.0108375, Final residual = 3.81645e-05, No Iterations 2951
linear solve p 17049141
time step continuity errors : sum local = 6.65194e-11, global = -1.12168e-22, cumulative = -1.37923e-22
[OGL LOG][Proc: 0]global_index_init: 0.01 [ms]
[OGL LOG][Proc: 0]global_index_init: 0.001 [ms]
[OGL LOG][Proc: 0]update_host_matrix_data: 433.235 [ms]
[OGL LOG][Proc: 0]gather_global_matrix: 0 [ms]
[OGL LOG][Proc: 0]generate_distributed_matrix: 228.711 [ms]
[OGL LOG][Proc: 0]init_precond: 0.028 [ms]
[OGL LOG][Proc: 0]generate_solver: 0.001 [ms]
[OGL LOG][Proc: 0]solve: 16158.2 [ms]
[OGL LOG][Proc: 0]copy_x_back: 60.614 [ms]
[OGL LOG][lduLduBase.H:380] 
Statistics:
	Time per iteration: 5475 [mu s]
	Time per iteration and DOF: 0.085547 [ns]
	Retrieve results bandwith 2.111000 [GByte/s]
nonecudaGKOCG:  Solving for p, Initial residual = 0.0102578, Final residual = 3.21568e-05, No Iterations 2951
linear solve p 17010586
time step continuity errors : sum local = 5.60705e-11, global = -3.00447e-23, cumulative = -1.67968e-22
ExecutionTime = 2364.53 s  ClockTime = 2400 s

Time = 0.000425

Courant Number mean: 0.00485411 max: 0.0961178
DILUPBiCGStab:  Solving for Ux, Initial residual = 0.00930958, Final residual = 3.58996e-06, No Iterations 5
DILUPBiCGStab:  Solving for Uy, Initial residual = 0.0145981, Final residual = 1.69199e-06, No Iterations 5
DILUPBiCGStab:  Solving for Uz, Initial residual = 0.0274569, Final residual = 6.29599e-06, No Iterations 5
linear solve U 22035356
[OGL LOG][Proc: 0]global_index_init: 0.007 [ms]
[OGL LOG][Proc: 0]global_index_init: 0.002 [ms]
[OGL LOG][Proc: 0]update_host_matrix_data: 434.402 [ms]
[OGL LOG][Proc: 0]gather_global_matrix: 0 [ms]
[OGL LOG][Proc: 0]generate_distributed_matrix: 217.521 [ms]
[OGL LOG][Proc: 0]init_precond: 0.032 [ms]
[OGL LOG][Proc: 0]generate_solver: 0.002 [ms]
[OGL LOG][Proc: 0]solve: 16169.1 [ms]
[OGL LOG][Proc: 0]copy_x_back: 61.388 [ms]
[OGL LOG][lduLduBase.H:380] 
Statistics:
	Time per iteration: 5479 [mu s]
	Time per iteration and DOF: 0.085609 [ns]
	Retrieve results bandwith 2.085000 [GByte/s]
nonecudaGKOCG:  Solving for p, Initial residual = 0.00982576, Final residual = 3.57951e-05, No Iterations 2951
linear solve p 17031499
time step continuity errors : sum local = 6.24022e-11, global = 6.45321e-23, cumulative = -1.03435e-22
[OGL LOG][Proc: 0]global_index_init: 0.008 [ms]
[OGL LOG][Proc: 0]global_index_init: 0.001 [ms]
[OGL LOG][Proc: 0]update_host_matrix_data: 433.149 [ms]
[OGL LOG][Proc: 0]gather_global_matrix: 0 [ms]
[OGL LOG][Proc: 0]generate_distributed_matrix: 207.357 [ms]
[OGL LOG][Proc: 0]init_precond: 0.028 [ms]
[OGL LOG][Proc: 0]generate_solver: 0.002 [ms]
[OGL LOG][Proc: 0]solve: 15531.2 [ms]
[OGL LOG][Proc: 0]copy_x_back: 63.176 [ms]
[OGL LOG][lduLduBase.H:380] 
Statistics:
	Time per iteration: 5482 [mu s]
	Time per iteration and DOF: 0.085656 [ns]
	Retrieve results bandwith 2.026000 [GByte/s]
nonecudaGKOCG:  Solving for p, Initial residual = 0.00933181, Final residual = 9.80251e-05, No Iterations 2833
linear solve p 16388017
time step continuity errors : sum local = 1.70952e-10, global = 7.15952e-23, cumulative = -3.18403e-23
ExecutionTime = 2433.63 s  ClockTime = 2472 s

Time = 0.00045

Courant Number mean: 0.00498313 max: 0.0962305
DILUPBiCGStab:  Solving for Ux, Initial residual = 0.00879668, Final residual = 3.16191e-06, No Iterations 5
DILUPBiCGStab:  Solving for Uy, Initial residual = 0.0137048, Final residual = 1.53831e-06, No Iterations 5
DILUPBiCGStab:  Solving for Uz, Initial residual = 0.0258762, Final residual = 5.50579e-06, No Iterations 5
linear solve U 22119496
[OGL LOG][Proc: 0]global_index_init: 0.007 [ms]
[OGL LOG][Proc: 0]global_index_init: 0.001 [ms]
[OGL LOG][Proc: 0]update_host_matrix_data: 433.424 [ms]
[OGL LOG][Proc: 0]gather_global_matrix: 0 [ms]
[OGL LOG][Proc: 0]generate_distributed_matrix: 218.882 [ms]
[OGL LOG][Proc: 0]init_precond: 0.03 [ms]
[OGL LOG][Proc: 0]generate_solver: 0.001 [ms]
[OGL LOG][Proc: 0]solve: 15558.3 [ms]
[OGL LOG][Proc: 0]copy_x_back: 62.788 [ms]
[OGL LOG][lduLduBase.H:380] 
Statistics:
	Time per iteration: 5505 [mu s]
	Time per iteration and DOF: 0.086016 [ns]
	Retrieve results bandwith 2.038000 [GByte/s]
nonecudaGKOCG:  Solving for p, Initial residual = 0.00920882, Final residual = 8.20377e-05, No Iterations 2826
linear solve p 16427005
time step continuity errors : sum local = 1.4312e-10, global = 7.65475e-25, cumulative = -3.10748e-23
[OGL LOG][Proc: 0]global_index_init: 0.008 [ms]
[OGL LOG][Proc: 0]global_index_init: 0 [ms]
[OGL LOG][Proc: 0]update_host_matrix_data: 435.197 [ms]
[OGL LOG][Proc: 0]gather_global_matrix: 0 [ms]
[OGL LOG][Proc: 0]generate_distributed_matrix: 211.407 [ms]
[OGL LOG][Proc: 0]init_precond: 0.03 [ms]
[OGL LOG][Proc: 0]generate_solver: 0.002 [ms]
[OGL LOG][Proc: 0]solve: 12577.8 [ms]
[OGL LOG][Proc: 0]copy_x_back: 61.735 [ms]
[OGL LOG][lduLduBase.H:380] 
Statistics:
	Time per iteration: 5562 [mu s]
	Time per iteration and DOF: 0.086906 [ns]
	Retrieve results bandwith 2.073000 [GByte/s]
nonecudaGKOCG:  Solving for p, Initial residual = 0.00875407, Final residual = 7.29959e-05, No Iterations 2261
linear solve p 13416378
time step continuity errors : sum local = 1.28242e-10, global = -2.15739e-23, cumulative = -5.26487e-23
ExecutionTime = 2499.46 s  ClockTime = 2539 s

Time = 0.000475

Courant Number mean: 0.00510714 max: 0.0963332
DILUPBiCGStab:  Solving for Ux, Initial residual = 0.0083371, Final residual = 2.80965e-06, No Iterations 5
DILUPBiCGStab:  Solving for Uy, Initial residual = 0.0129136, Final residual = 1.41373e-06, No Iterations 5
DILUPBiCGStab:  Solving for Uz, Initial residual = 0.0245427, Final residual = 5.01862e-06, No Iterations 5
linear solve U 22026558
[OGL LOG][Proc: 0]global_index_init: 0.007 [ms]
[OGL LOG][Proc: 0]global_index_init: 0.002 [ms]
[OGL LOG][Proc: 0]update_host_matrix_data: 433.012 [ms]
[OGL LOG][Proc: 0]gather_global_matrix: 0 [ms]
[OGL LOG][Proc: 0]generate_distributed_matrix: 216.357 [ms]
[OGL LOG][Proc: 0]init_precond: 0.039 [ms]
[OGL LOG][Proc: 0]generate_solver: 0.002 [ms]
[OGL LOG][Proc: 0]solve: 10695.8 [ms]
[OGL LOG][Proc: 0]copy_x_back: 62.97 [ms]
[OGL LOG][lduLduBase.H:380] 
Statistics:
	Time per iteration: 5656 [mu s]
	Time per iteration and DOF: 0.088375 [ns]
	Retrieve results bandwith 2.032000 [GByte/s]
nonecudaGKOCG:  Solving for p, Initial residual = 0.00859673, Final residual = 2.90106e-05, No Iterations 1891
linear solve p 11571612
time step continuity errors : sum local = 5.22115e-11, global = -3.32817e-23, cumulative = -8.59304e-23
[OGL LOG][Proc: 0]global_index_init: 0.009 [ms]
[OGL LOG][Proc: 0]global_index_init: 0.001 [ms]
[OGL LOG][Proc: 0]update_host_matrix_data: 433.322 [ms]
[OGL LOG][Proc: 0]gather_global_matrix: 0 [ms]
[OGL LOG][Proc: 0]generate_distributed_matrix: 223.085 [ms]
[OGL LOG][Proc: 0]init_precond: 0.029 [ms]
[OGL LOG][Proc: 0]generate_solver: 0.001 [ms]
[OGL LOG][Proc: 0]solve: 9153.16 [ms]
[OGL LOG][Proc: 0]copy_x_back: 63.124 [ms]
[OGL LOG][lduLduBase.H:380] 
Statistics:
	Time per iteration: 5807 [mu s]
	Time per iteration and DOF: 0.090734 [ns]
	Retrieve results bandwith 2.027000 [GByte/s]
nonecudaGKOCG:  Solving for p, Initial residual = 0.00816431, Final residual = 1.4672e-05, No Iterations 1576
linear solve p 10005909
time step continuity errors : sum local = 2.69413e-11, global = -4.99778e-23, cumulative = -1.35908e-22
ExecutionTime = 2557.4 s  ClockTime = 2598 s

Time = 0.0005

Courant Number mean: 0.00522673 max: 0.0964273
DILUPBiCGStab:  Solving for Ux, Initial residual = 0.00792401, Final residual = 2.51626e-06, No Iterations 5
DILUPBiCGStab:  Solving for Uy, Initial residual = 0.0122053, Final residual = 1.29884e-06, No Iterations 5
DILUPBiCGStab:  Solving for Uz, Initial residual = 0.0234626, Final residual = 4.35488e-06, No Iterations 5
linear solve U 22079610
[OGL LOG][Proc: 0]global_index_init: 0.007 [ms]
[OGL LOG][Proc: 0]global_index_init: 0.001 [ms]
[OGL LOG][Proc: 0]update_host_matrix_data: 433.213 [ms]
[OGL LOG][Proc: 0]gather_global_matrix: 0 [ms]
[OGL LOG][Proc: 0]generate_distributed_matrix: 216.074 [ms]
[OGL LOG][Proc: 0]init_precond: 0.035 [ms]
[OGL LOG][Proc: 0]generate_solver: 0.002 [ms]
[OGL LOG][Proc: 0]solve: 7380.44 [ms]
[OGL LOG][Proc: 0]copy_x_back: 63.642 [ms]
[OGL LOG][lduLduBase.H:380] 
Statistics:
	Time per iteration: 5852 [mu s]
	Time per iteration and DOF: 0.091438 [ns]
	Retrieve results bandwith 2.011000 [GByte/s]
nonecudaGKOCG:  Solving for p, Initial residual = 0.00775255, Final residual = 2.65074e-05, No Iterations 1261
linear solve p 8246345
time step continuity errors : sum local = 4.65246e-11, global = 8.0354e-23, cumulative = -5.55541e-23
[OGL LOG][Proc: 0]global_index_init: 0.009 [ms]
[OGL LOG][Proc: 0]global_index_init: 0.001 [ms]
[OGL LOG][Proc: 0]update_host_matrix_data: 432.334 [ms]
[OGL LOG][Proc: 0]gather_global_matrix: 0 [ms]
[OGL LOG][Proc: 0]generate_distributed_matrix: 211.276 [ms]
[OGL LOG][Proc: 0]init_precond: 0.031 [ms]
[OGL LOG][Proc: 0]generate_solver: 0.001 [ms]
[OGL LOG][Proc: 0]solve: 6905.29 [ms]
[OGL LOG][Proc: 0]copy_x_back: 63.187 [ms]
[OGL LOG][lduLduBase.H:380] 
Statistics:
	Time per iteration: 5999 [mu s]
	Time per iteration and DOF: 0.093734 [ns]
	Retrieve results bandwith 2.025000 [GByte/s]
nonecudaGKOCG:  Solving for p, Initial residual = 0.00737617, Final residual = 8.70545e-05, No Iterations 1151
linear solve p 7725419
time step continuity errors : sum local = 1.52734e-10, global = 4.59471e-23, cumulative = -9.60699e-24
ExecutionTime = 2610.15 s  ClockTime = 2652 s

End

Finalising parallel run
================================================================================
hash: 09742b21f01ecefb927785310bacea2d
/*---------------------------------------------------------------------------*\
| =========                 |                                                 |
| \\      /  F ield         | OpenFOAM: The Open Source CFD Toolbox           |
|  \\    /   O peration     | Version:  2112                                  |
|   \\  /    A nd           | Website:  www.openfoam.com                      |
|    \\/     M anipulation  |                                                 |
\*---------------------------------------------------------------------------*/
Build  : d44c8318f0-20220111 OPENFOAM=2112 version=v2112
Arch   : "LSB;label=32;scalar=64"
Exec   : icoFoam -parallel
Date   : Jun 27 2022
Time   : 09:57:02
Host   : hkn0813.localdomain
PID    : 1081043
I/O    : uncollated
Case   : /hkfs/work/workspace/scratch/eq4036-lidDrivenCavity/simple/mesh/300/matrix_solver/CG_NoPrecond_CUDA/mpiRank_gko/3/base
nProcs : 3
Hosts  :
(
    (hkn0813.localdomain 3)
)
Pstream initialized with:
    floatTransfer      : 0
    nProcsSimpleSum    : 0
    commsType          : nonBlocking
    polling iterations : 0
trapFpe: Floating point exception trapping enabled (FOAM_SIGFPE).
fileModificationChecking : Monitoring run-time modified files using timeStampMaster (fileModificationSkew 5, maxFileModificationPolls 20)
allowSystemOperations : Allowing user-supplied system call operations

// * * * * * * * * * * * * * * * * * * * * * * * * * * * * * * * * * * * * * //
Create time

Create mesh for time = 0


PISO: Operating solver in PISO mode

Reading transportProperties

Reading field p

Reading field U

Reading/calculating face flux field phi


Starting time loop

Time = 3.33333e-05

Courant Number mean: 0 max: 0
DILUPBiCGStab:  Solving for Ux, Initial residual = 1, Final residual = 0.000491339, No Iterations 5
DILUPBiCGStab:  Solving for Uy:  solution singularity
DILUPBiCGStab:  Solving for Uz:  solution singularity
linear solve U 5967835
[OGL LOG][Proc: 0]global_index_init: 0.024 [ms]
[OGL LOG][Proc: 0]global_index_init: 0.001 [ms]
[OGL LOG][Proc: 0]init_host_sparsity_pattern: 376294 [ms]
[OGL LOG][Proc: 0]update_host_matrix_data: 268.685 [ms]
[OGL LOG][Proc: 0]convert_coo_to_csr: 701.729 [ms]
[OGL LOG][lduLduBase.H:153] Initialising OGL
	Version:  484b851
	branch: HEAD 
	Ginkgo version: 1.5.0(develop)
	MPI is GPU aware: 1)
	Forces host buffer based communication: 1
[OGL LOG][Proc: 0]gather_global_matrix: 0.003 [ms]
[OGL LOG][Proc: 0]generate_distributed_matrix: 112.685 [ms]
[OGL LOG][Proc: 0]init_precond: 0.07 [ms]
[OGL LOG][Proc: 0]generate_solver: 0.014 [ms]
[OGL LOG][Proc: 0]solve: 8785.35 [ms]
[OGL LOG][Proc: 0]copy_x_back: 24.917 [ms]
[OGL LOG][lduLduBase.H:380] 
Statistics:
	Time per iteration: 3607 [mu s]
	Time per iteration and DOF: 0.133593 [ns]
	Retrieve results bandwith 2.889000 [GByte/s]
nonecudaGKOCG:  Solving for p, Initial residual = 1, Final residual = 9.92606e-05, No Iterations 2435
linear solve p 752330315
time step continuity errors : sum local = 3.65659e-10, global = -9.4011e-24, cumulative = -9.4011e-24
[OGL LOG][Proc: 0]global_index_init: 0.007 [ms]
[OGL LOG][Proc: 0]global_index_init: 0 [ms]
[OGL LOG][Proc: 0]update_host_matrix_data: 232.341 [ms]
[OGL LOG][Proc: 0]gather_global_matrix: 0 [ms]
[OGL LOG][Proc: 0]generate_distributed_matrix: 108.334 [ms]
[OGL LOG][Proc: 0]init_precond: 0.047 [ms]
[OGL LOG][Proc: 0]generate_solver: 0.002 [ms]
[OGL LOG][Proc: 0]solve: 8443.07 [ms]
[OGL LOG][Proc: 0]copy_x_back: 33.953 [ms]
[OGL LOG][lduLduBase.H:380] 
Statistics:
	Time per iteration: 3480 [mu s]
	Time per iteration and DOF: 0.128889 [ns]
	Retrieve results bandwith 2.120000 [GByte/s]
nonecudaGKOCG:  Solving for p, Initial residual = 0.689125, Final residual = 7.94061e-05, No Iterations 2426
linear solve p 8899959
time step continuity errors : sum local = 4.05186e-10, global = 8.54538e-25, cumulative = -8.54656e-24
ExecutionTime = 805.6 s  ClockTime = 807 s

Time = 6.66667e-05

Courant Number mean: 0.0013224 max: 0.0715364
DILUPBiCGStab:  Solving for Ux, Initial residual = 0.17237, Final residual = 0.00026813, No Iterations 5
DILUPBiCGStab:  Solving for Uy, Initial residual = 0.340769, Final residual = 0.000157741, No Iterations 5
DILUPBiCGStab:  Solving for Uz, Initial residual = 0.996007, Final residual = 0.000823908, No Iterations 5
linear solve U 12026405
[OGL LOG][Proc: 0]global_index_init: 0.006 [ms]
[OGL LOG][Proc: 0]global_index_init: 0 [ms]
[OGL LOG][Proc: 0]update_host_matrix_data: 230.111 [ms]
[OGL LOG][Proc: 0]gather_global_matrix: 0 [ms]
[OGL LOG][Proc: 0]generate_distributed_matrix: 118.82 [ms]
[OGL LOG][Proc: 0]init_precond: 0.034 [ms]
[OGL LOG][Proc: 0]generate_solver: 0.002 [ms]
[OGL LOG][Proc: 0]solve: 8332.69 [ms]
[OGL LOG][Proc: 0]copy_x_back: 34.567 [ms]
[OGL LOG][lduLduBase.H:380] 
Statistics:
	Time per iteration: 3434 [mu s]
	Time per iteration and DOF: 0.127185 [ns]
	Retrieve results bandwith 2.082000 [GByte/s]
nonecudaGKOCG:  Solving for p, Initial residual = 0.593438, Final residual = 4.23296e-05, No Iterations 2426
linear solve p 8779820
time step continuity errors : sum local = 2.1992e-10, global = -1.15086e-22, cumulative = -1.23632e-22
[OGL LOG][Proc: 0]global_index_init: 0.007 [ms]
[OGL LOG][Proc: 0]global_index_init: 0.001 [ms]
[OGL LOG][Proc: 0]update_host_matrix_data: 230.791 [ms]
[OGL LOG][Proc: 0]gather_global_matrix: 0 [ms]
[OGL LOG][Proc: 0]generate_distributed_matrix: 110.413 [ms]
[OGL LOG][Proc: 0]init_precond: 0.034 [ms]
[OGL LOG][Proc: 0]generate_solver: 0.002 [ms]
[OGL LOG][Proc: 0]solve: 8343.17 [ms]
[OGL LOG][Proc: 0]copy_x_back: 33.868 [ms]
[OGL LOG][lduLduBase.H:380] 
Statistics:
	Time per iteration: 3439 [mu s]
	Time per iteration and DOF: 0.127370 [ns]
	Retrieve results bandwith 2.125000 [GByte/s]
nonecudaGKOCG:  Solving for p, Initial residual = 0.513979, Final residual = 3.57264e-05, No Iterations 2426
linear solve p 8791858
time step continuity errors : sum local = 1.89931e-10, global = -1.54494e-23, cumulative = -1.39082e-22
ExecutionTime = 843.53 s  ClockTime = 845 s

Time = 0.0001

Courant Number mean: 0.00202533 max: 0.0848302
DILUPBiCGStab:  Solving for Ux, Initial residual = 0.071695, Final residual = 7.53921e-05, No Iterations 5
DILUPBiCGStab:  Solving for Uy, Initial residual = 0.137117, Final residual = 4.18616e-05, No Iterations 5
DILUPBiCGStab:  Solving for Uz, Initial residual = 0.194663, Final residual = 0.000191121, No Iterations 5
linear solve U 12038062
[OGL LOG][Proc: 0]global_index_init: 0.013 [ms]
[OGL LOG][Proc: 0]global_index_init: 0.001 [ms]
[OGL LOG][Proc: 0]update_host_matrix_data: 231.14 [ms]
[OGL LOG][Proc: 0]gather_global_matrix: 0 [ms]
[OGL LOG][Proc: 0]generate_distributed_matrix: 115.051 [ms]
[OGL LOG][Proc: 0]init_precond: 0.033 [ms]
[OGL LOG][Proc: 0]generate_solver: 0.002 [ms]
[OGL LOG][Proc: 0]solve: 8018.04 [ms]
[OGL LOG][Proc: 0]copy_x_back: 34.857 [ms]
[OGL LOG][lduLduBase.H:380] 
Statistics:
	Time per iteration: 3442 [mu s]
	Time per iteration and DOF: 0.127481 [ns]
	Retrieve results bandwith 2.065000 [GByte/s]
nonecudaGKOCG:  Solving for p, Initial residual = 0.42151, Final residual = 9.75472e-05, No Iterations 2329
linear solve p 8474980
time step continuity errors : sum local = 3.66951e-10, global = -8.42624e-23, cumulative = -2.23344e-22
[OGL LOG][Proc: 0]global_index_init: 0.007 [ms]
[OGL LOG][Proc: 0]global_index_init: 0 [ms]
[OGL LOG][Proc: 0]update_host_matrix_data: 231.441 [ms]
[OGL LOG][Proc: 0]gather_global_matrix: 0 [ms]
[OGL LOG][Proc: 0]generate_distributed_matrix: 109.385 [ms]
[OGL LOG][Proc: 0]init_precond: 0.034 [ms]
[OGL LOG][Proc: 0]generate_solver: 0.002 [ms]
[OGL LOG][Proc: 0]solve: 8011.01 [ms]
[OGL LOG][Proc: 0]copy_x_back: 34.289 [ms]
[OGL LOG][lduLduBase.H:380] 
Statistics:
	Time per iteration: 3444 [mu s]
	Time per iteration and DOF: 0.127556 [ns]
	Retrieve results bandwith 2.099000 [GByte/s]
nonecudaGKOCG:  Solving for p, Initial residual = 0.366051, Final residual = 9.0027e-05, No Iterations 2326
linear solve p 8451351
time step continuity errors : sum local = 3.32153e-10, global = -2.39441e-23, cumulative = -2.47288e-22
ExecutionTime = 880.85 s  ClockTime = 883 s

Time = 0.000133333

Courant Number mean: 0.00251224 max: 0.0887227
DILUPBiCGStab:  Solving for Ux, Initial residual = 0.0466829, Final residual = 2.7498e-05, No Iterations 5
DILUPBiCGStab:  Solving for Uy, Initial residual = 0.086201, Final residual = 1.67115e-05, No Iterations 5
DILUPBiCGStab:  Solving for Uz, Initial residual = 0.113598, Final residual = 7.67406e-05, No Iterations 5
linear solve U 12067073
[OGL LOG][Proc: 0]global_index_init: 0.007 [ms]
[OGL LOG][Proc: 0]global_index_init: 0.001 [ms]
[OGL LOG][Proc: 0]update_host_matrix_data: 231.1 [ms]
[OGL LOG][Proc: 0]gather_global_matrix: 0 [ms]
[OGL LOG][Proc: 0]generate_distributed_matrix: 106.195 [ms]
[OGL LOG][Proc: 0]init_precond: 0.039 [ms]
[OGL LOG][Proc: 0]generate_solver: 0.002 [ms]
[OGL LOG][Proc: 0]solve: 8013.62 [ms]
[OGL LOG][Proc: 0]copy_x_back: 33.986 [ms]
[OGL LOG][lduLduBase.H:380] 
Statistics:
	Time per iteration: 3445 [mu s]
	Time per iteration and DOF: 0.127593 [ns]
	Retrieve results bandwith 2.118000 [GByte/s]
nonecudaGKOCG:  Solving for p, Initial residual = 0.210089, Final residual = 4.08596e-05, No Iterations 2326
linear solve p 8466060
time step continuity errors : sum local = 1.38027e-10, global = -4.68708e-23, cumulative = -2.94159e-22
[OGL LOG][Proc: 0]global_index_init: 0.006 [ms]
[OGL LOG][Proc: 0]global_index_init: 0 [ms]
[OGL LOG][Proc: 0]update_host_matrix_data: 231.117 [ms]
[OGL LOG][Proc: 0]gather_global_matrix: 0 [ms]
[OGL LOG][Proc: 0]generate_distributed_matrix: 118.627 [ms]
[OGL LOG][Proc: 0]init_precond: 0.038 [ms]
[OGL LOG][Proc: 0]generate_solver: 0.002 [ms]
[OGL LOG][Proc: 0]solve: 8078.98 [ms]
[OGL LOG][Proc: 0]copy_x_back: 34.686 [ms]
[OGL LOG][lduLduBase.H:380] 
Statistics:
	Time per iteration: 3473 [mu s]
	Time per iteration and DOF: 0.128630 [ns]
	Retrieve results bandwith 2.075000 [GByte/s]
nonecudaGKOCG:  Solving for p, Initial residual = 0.171, Final residual = 3.42043e-05, No Iterations 2326
linear solve p 8527656
time step continuity errors : sum local = 1.16509e-10, global = -1.27793e-22, cumulative = -4.21952e-22
ExecutionTime = 918.27 s  ClockTime = 920 s

Time = 0.000166667

Courant Number mean: 0.00290363 max: 0.090587
DILUPBiCGStab:  Solving for Ux, Initial residual = 0.0352302, Final residual = 9.61687e-06, No Iterations 5
DILUPBiCGStab:  Solving for Uy, Initial residual = 0.062444, Final residual = 1.14472e-05, No Iterations 5
DILUPBiCGStab:  Solving for Uz, Initial residual = 0.089356, Final residual = 4.25742e-05, No Iterations 5
linear solve U 12060996
[OGL LOG][Proc: 0]global_index_init: 0.007 [ms]
[OGL LOG][Proc: 0]global_index_init: 0.001 [ms]
[OGL LOG][Proc: 0]update_host_matrix_data: 231.508 [ms]
[OGL LOG][Proc: 0]gather_global_matrix: 0 [ms]
[OGL LOG][Proc: 0]generate_distributed_matrix: 105.988 [ms]
[OGL LOG][Proc: 0]init_precond: 0.036 [ms]
[OGL LOG][Proc: 0]generate_solver: 0.002 [ms]
[OGL LOG][Proc: 0]solve: 8037.89 [ms]
[OGL LOG][Proc: 0]copy_x_back: 33.597 [ms]
[OGL LOG][lduLduBase.H:380] 
Statistics:
	Time per iteration: 3455 [mu s]
	Time per iteration and DOF: 0.127963 [ns]
	Retrieve results bandwith 2.143000 [GByte/s]
nonecudaGKOCG:  Solving for p, Initial residual = 0.121249, Final residual = 3.10694e-05, No Iterations 2326
linear solve p 8491367
time step continuity errors : sum local = 9.76798e-11, global = -6.38019e-23, cumulative = -4.85753e-22
[OGL LOG][Proc: 0]global_index_init: 0.007 [ms]
[OGL LOG][Proc: 0]global_index_init: 0.001 [ms]
[OGL LOG][Proc: 0]update_host_matrix_data: 230.786 [ms]
[OGL LOG][Proc: 0]gather_global_matrix: 0 [ms]
[OGL LOG][Proc: 0]generate_distributed_matrix: 118.542 [ms]
[OGL LOG][Proc: 0]init_precond: 0.035 [ms]
[OGL LOG][Proc: 0]generate_solver: 0.002 [ms]
[OGL LOG][Proc: 0]solve: 7698.51 [ms]
[OGL LOG][Proc: 0]copy_x_back: 35.056 [ms]
[OGL LOG][lduLduBase.H:380] 
Statistics:
	Time per iteration: 3447 [mu s]
	Time per iteration and DOF: 0.127667 [ns]
	Retrieve results bandwith 2.053000 [GByte/s]
nonecudaGKOCG:  Solving for p, Initial residual = 0.100344, Final residual = 9.61007e-05, No Iterations 2233
linear solve p 8147449
time step continuity errors : sum local = 3.01728e-10, global = 3.91099e-23, cumulative = -4.46644e-22
ExecutionTime = 955.34 s  ClockTime = 958 s

Time = 0.0002

Courant Number mean: 0.00323663 max: 0.0917321
DILUPBiCGStab:  Solving for Ux, Initial residual = 0.0284974, Final residual = 8.88642e-06, No Iterations 5
DILUPBiCGStab:  Solving for Uy, Initial residual = 0.0490504, Final residual = 5.23071e-06, No Iterations 5
DILUPBiCGStab:  Solving for Uz, Initial residual = 0.075812, Final residual = 2.77079e-05, No Iterations 5
linear solve U 12029370
[OGL LOG][Proc: 0]global_index_init: 0.006 [ms]
[OGL LOG][Proc: 0]global_index_init: 0 [ms]
[OGL LOG][Proc: 0]update_host_matrix_data: 231.579 [ms]
[OGL LOG][Proc: 0]gather_global_matrix: 0 [ms]
[OGL LOG][Proc: 0]generate_distributed_matrix: 108.276 [ms]
[OGL LOG][Proc: 0]init_precond: 0.037 [ms]
[OGL LOG][Proc: 0]generate_solver: 0.002 [ms]
[OGL LOG][Proc: 0]solve: 7686.03 [ms]
[OGL LOG][Proc: 0]copy_x_back: 33.914 [ms]
[OGL LOG][lduLduBase.H:380] 
Statistics:
	Time per iteration: 3452 [mu s]
	Time per iteration and DOF: 0.127852 [ns]
	Retrieve results bandwith 2.123000 [GByte/s]
nonecudaGKOCG:  Solving for p, Initial residual = 0.0716644, Final residual = 8.6716e-05, No Iterations 2226
linear solve p 8130268
time step continuity errors : sum local = 2.6744e-10, global = -1.13467e-22, cumulative = -5.60111e-22
[OGL LOG][Proc: 0]global_index_init: 0.007 [ms]
[OGL LOG][Proc: 0]global_index_init: 0.001 [ms]
[OGL LOG][Proc: 0]update_host_matrix_data: 230.743 [ms]
[OGL LOG][Proc: 0]gather_global_matrix: 0 [ms]
[OGL LOG][Proc: 0]generate_distributed_matrix: 114.896 [ms]
[OGL LOG][Proc: 0]init_precond: 0.034 [ms]
[OGL LOG][Proc: 0]generate_solver: 0.002 [ms]
[OGL LOG][Proc: 0]solve: 7684.41 [ms]
[OGL LOG][Proc: 0]copy_x_back: 34.308 [ms]
[OGL LOG][lduLduBase.H:380] 
Statistics:
	Time per iteration: 3452 [mu s]
	Time per iteration and DOF: 0.127852 [ns]
	Retrieve results bandwith 2.098000 [GByte/s]
nonecudaGKOCG:  Solving for p, Initial residual = 0.0601133, Final residual = 7.6918e-05, No Iterations 2226
linear solve p 8140146
time step continuity errors : sum local = 2.37979e-10, global = -1.48296e-22, cumulative = -7.08407e-22
ExecutionTime = 992 s  ClockTime = 994 s

Time = 0.000233333

Courant Number mean: 0.00352955 max: 0.0925284
DILUPBiCGStab:  Solving for Ux, Initial residual = 0.0240155, Final residual = 7.58271e-06, No Iterations 5
DILUPBiCGStab:  Solving for Uy, Initial residual = 0.0403742, Final residual = 5.15439e-06, No Iterations 5
DILUPBiCGStab:  Solving for Uz, Initial residual = 0.0654845, Final residual = 1.72709e-05, No Iterations 5
linear solve U 12014467
[OGL LOG][Proc: 0]global_index_init: 0.006 [ms]
[OGL LOG][Proc: 0]global_index_init: 0 [ms]
[OGL LOG][Proc: 0]update_host_matrix_data: 232.271 [ms]
[OGL LOG][Proc: 0]gather_global_matrix: 0 [ms]
[OGL LOG][Proc: 0]generate_distributed_matrix: 110.187 [ms]
[OGL LOG][Proc: 0]init_precond: 0.034 [ms]
[OGL LOG][Proc: 0]generate_solver: 0.002 [ms]
[OGL LOG][Proc: 0]solve: 7690.15 [ms]
[OGL LOG][Proc: 0]copy_x_back: 34.414 [ms]
[OGL LOG][lduLduBase.H:380] 
Statistics:
	Time per iteration: 3454 [mu s]
	Time per iteration and DOF: 0.127926 [ns]
	Retrieve results bandwith 2.092000 [GByte/s]
nonecudaGKOCG:  Solving for p, Initial residual = 0.0469496, Final residual = 8.04951e-05, No Iterations 2226
linear solve p 8136621
time step continuity errors : sum local = 2.45668e-10, global = 4.29186e-23, cumulative = -6.65488e-22
[OGL LOG][Proc: 0]global_index_init: 0.006 [ms]
[OGL LOG][Proc: 0]global_index_init: 0 [ms]
[OGL LOG][Proc: 0]update_host_matrix_data: 230.693 [ms]
[OGL LOG][Proc: 0]gather_global_matrix: 0 [ms]
[OGL LOG][Proc: 0]generate_distributed_matrix: 108.995 [ms]
[OGL LOG][Proc: 0]init_precond: 0.035 [ms]
[OGL LOG][Proc: 0]generate_solver: 0.002 [ms]
[OGL LOG][Proc: 0]solve: 7691.32 [ms]
[OGL LOG][Proc: 0]copy_x_back: 34.294 [ms]
[OGL LOG][lduLduBase.H:380] 
Statistics:
	Time per iteration: 3455 [mu s]
	Time per iteration and DOF: 0.127963 [ns]
	Retrieve results bandwith 2.099000 [GByte/s]
nonecudaGKOCG:  Solving for p, Initial residual = 0.0402059, Final residual = 7.52536e-05, No Iterations 2226
linear solve p 8139103
time step continuity errors : sum local = 2.29802e-10, global = -8.30927e-23, cumulative = -7.48581e-22
ExecutionTime = 1028.67 s  ClockTime = 1031 s

Time = 0.000266667

Courant Number mean: 0.00379264 max: 0.0931238
DILUPBiCGStab:  Solving for Ux, Initial residual = 0.0207922, Final residual = 6.21865e-06, No Iterations 5
DILUPBiCGStab:  Solving for Uy, Initial residual = 0.0342855, Final residual = 3.02861e-06, No Iterations 5
DILUPBiCGStab:  Solving for Uz, Initial residual = 0.0574071, Final residual = 1.22619e-05, No Iterations 5
linear solve U 12008019
[OGL LOG][Proc: 0]global_index_init: 0.009 [ms]
[OGL LOG][Proc: 0]global_index_init: 0 [ms]
[OGL LOG][Proc: 0]update_host_matrix_data: 231.49 [ms]
[OGL LOG][Proc: 0]gather_global_matrix: 0 [ms]
[OGL LOG][Proc: 0]generate_distributed_matrix: 114.551 [ms]
[OGL LOG][Proc: 0]init_precond: 0.034 [ms]
[OGL LOG][Proc: 0]generate_solver: 0.002 [ms]
[OGL LOG][Proc: 0]solve: 7682.34 [ms]
[OGL LOG][Proc: 0]copy_x_back: 34.804 [ms]
[OGL LOG][lduLduBase.H:380] 
Statistics:
	Time per iteration: 3451 [mu s]
	Time per iteration and DOF: 0.127815 [ns]
	Retrieve results bandwith 2.068000 [GByte/s]
nonecudaGKOCG:  Solving for p, Initial residual = 0.0319966, Final residual = 3.29045e-05, No Iterations 2226
linear solve p 8138532
time step continuity errors : sum local = 9.9861e-11, global = -1.24968e-22, cumulative = -8.73549e-22
[OGL LOG][Proc: 0]global_index_init: 0.007 [ms]
[OGL LOG][Proc: 0]global_index_init: 0 [ms]
[OGL LOG][Proc: 0]update_host_matrix_data: 231.538 [ms]
[OGL LOG][Proc: 0]gather_global_matrix: 0 [ms]
[OGL LOG][Proc: 0]generate_distributed_matrix: 110.543 [ms]
[OGL LOG][Proc: 0]init_precond: 0.037 [ms]
[OGL LOG][Proc: 0]generate_solver: 0.002 [ms]
[OGL LOG][Proc: 0]solve: 7711.33 [ms]
[OGL LOG][Proc: 0]copy_x_back: 34.405 [ms]
[OGL LOG][lduLduBase.H:380] 
Statistics:
	Time per iteration: 3464 [mu s]
	Time per iteration and DOF: 0.128296 [ns]
	Retrieve results bandwith 2.092000 [GByte/s]
nonecudaGKOCG:  Solving for p, Initial residual = 0.0280898, Final residual = 2.14584e-05, No Iterations 2226
linear solve p 8157772
time step continuity errors : sum local = 6.5239e-11, global = -8.12631e-23, cumulative = -9.54812e-22
ExecutionTime = 1065.33 s  ClockTime = 1068 s

Time = 0.0003

Courant Number mean: 0.00403247 max: 0.0935908
DILUPBiCGStab:  Solving for Ux, Initial residual = 0.0183558, Final residual = 4.96273e-06, No Iterations 5
DILUPBiCGStab:  Solving for Uy, Initial residual = 0.0297906, Final residual = 2.9211e-06, No Iterations 5
DILUPBiCGStab:  Solving for Uz, Initial residual = 0.0514828, Final residual = 9.06621e-06, No Iterations 5
linear solve U 12062758
[OGL LOG][Proc: 0]global_index_init: 0.011 [ms]
[OGL LOG][Proc: 0]global_index_init: 0 [ms]
[OGL LOG][Proc: 0]update_host_matrix_data: 230.924 [ms]
[OGL LOG][Proc: 0]gather_global_matrix: 0 [ms]
[OGL LOG][Proc: 0]generate_distributed_matrix: 114.075 [ms]
[OGL LOG][Proc: 0]init_precond: 0.036 [ms]
[OGL LOG][Proc: 0]generate_solver: 0.002 [ms]
[OGL LOG][Proc: 0]solve: 7713.33 [ms]
[OGL LOG][Proc: 0]copy_x_back: 33.885 [ms]
[OGL LOG][lduLduBase.H:380] 
Statistics:
	Time per iteration: 3465 [mu s]
	Time per iteration and DOF: 0.128333 [ns]
	Retrieve results bandwith 2.124000 [GByte/s]
nonecudaGKOCG:  Solving for p, Initial residual = 0.0249394, Final residual = 5.62514e-05, No Iterations 2226
linear solve p 8167861
time step continuity errors : sum local = 1.70693e-10, global = -2.2328e-22, cumulative = -1.17809e-21
[OGL LOG][Proc: 0]global_index_init: 0.007 [ms]
[OGL LOG][Proc: 0]global_index_init: 0 [ms]
[OGL LOG][Proc: 0]update_host_matrix_data: 230.098 [ms]
[OGL LOG][Proc: 0]gather_global_matrix: 0 [ms]
[OGL LOG][Proc: 0]generate_distributed_matrix: 110.023 [ms]
[OGL LOG][Proc: 0]init_precond: 0.032 [ms]
[OGL LOG][Proc: 0]generate_solver: 0.002 [ms]
[OGL LOG][Proc: 0]solve: 7682.51 [ms]
[OGL LOG][Proc: 0]copy_x_back: 35.088 [ms]
[OGL LOG][lduLduBase.H:380] 
Statistics:
	Time per iteration: 3451 [mu s]
	Time per iteration and DOF: 0.127815 [ns]
	Retrieve results bandwith 2.051000 [GByte/s]
nonecudaGKOCG:  Solving for p, Initial residual = 0.0223264, Final residual = 4.89231e-05, No Iterations 2226
linear solve p 8121797
time step continuity errors : sum local = 1.48583e-10, global = -1.1638e-22, cumulative = -1.29447e-21
ExecutionTime = 1102 s  ClockTime = 1105 s

Time = 0.000333333

Courant Number mean: 0.00425373 max: 0.0939696
DILUPBiCGStab:  Solving for Ux, Initial residual = 0.0164422, Final residual = 4.00218e-06, No Iterations 5
DILUPBiCGStab:  Solving for Uy, Initial residual = 0.0263207, Final residual = 2.12822e-06, No Iterations 5
DILUPBiCGStab:  Solving for Uz, Initial residual = 0.0462898, Final residual = 7.13912e-06, No Iterations 5
linear solve U 12094262
[OGL LOG][Proc: 0]global_index_init: 0.007 [ms]
[OGL LOG][Proc: 0]global_index_init: 0 [ms]
[OGL LOG][Proc: 0]update_host_matrix_data: 232.639 [ms]
[OGL LOG][Proc: 0]gather_global_matrix: 0 [ms]
[OGL LOG][Proc: 0]generate_distributed_matrix: 108.896 [ms]
[OGL LOG][Proc: 0]init_precond: 0.037 [ms]
[OGL LOG][Proc: 0]generate_solver: 0.002 [ms]
[OGL LOG][Proc: 0]solve: 7707.27 [ms]
[OGL LOG][Proc: 0]copy_x_back: 33.991 [ms]
[OGL LOG][lduLduBase.H:380] 
Statistics:
	Time per iteration: 3462 [mu s]
	Time per iteration and DOF: 0.128222 [ns]
	Retrieve results bandwith 2.118000 [GByte/s]
nonecudaGKOCG:  Solving for p, Initial residual = 0.0193367, Final residual = 4.20979e-05, No Iterations 2226
linear solve p 8159662
time step continuity errors : sum local = 1.27759e-10, global = -1.54395e-22, cumulative = -1.44887e-21
[OGL LOG][Proc: 0]global_index_init: 0.006 [ms]
[OGL LOG][Proc: 0]global_index_init: 0.001 [ms]
[OGL LOG][Proc: 0]update_host_matrix_data: 231.049 [ms]
[OGL LOG][Proc: 0]gather_global_matrix: 0 [ms]
[OGL LOG][Proc: 0]generate_distributed_matrix: 115.924 [ms]
[OGL LOG][Proc: 0]init_precond: 0.034 [ms]
[OGL LOG][Proc: 0]generate_solver: 0.002 [ms]
[OGL LOG][Proc: 0]solve: 7680.86 [ms]
[OGL LOG][Proc: 0]copy_x_back: 34.278 [ms]
[OGL LOG][lduLduBase.H:380] 
Statistics:
	Time per iteration: 3450 [mu s]
	Time per iteration and DOF: 0.127778 [ns]
	Retrieve results bandwith 2.100000 [GByte/s]
nonecudaGKOCG:  Solving for p, Initial residual = 0.017644, Final residual = 3.39309e-05, No Iterations 2226
linear solve p 8126363
time step continuity errors : sum local = 1.03086e-10, global = -1.14264e-22, cumulative = -1.56313e-21
ExecutionTime = 1138.75 s  ClockTime = 1142 s

Time = 0.000366667

Courant Number mean: 0.0044595 max: 0.094285
DILUPBiCGStab:  Solving for Ux, Initial residual = 0.0148967, Final residual = 3.25997e-06, No Iterations 5
DILUPBiCGStab:  Solving for Uy, Initial residual = 0.0235705, Final residual = 1.94721e-06, No Iterations 5
DILUPBiCGStab:  Solving for Uz, Initial residual = 0.0421915, Final residual = 5.73528e-06, No Iterations 5
linear solve U 12030076
[OGL LOG][Proc: 0]global_index_init: 0.014 [ms]
[OGL LOG][Proc: 0]global_index_init: 0 [ms]
[OGL LOG][Proc: 0]update_host_matrix_data: 231.746 [ms]
[OGL LOG][Proc: 0]gather_global_matrix: 0 [ms]
[OGL LOG][Proc: 0]generate_distributed_matrix: 108.976 [ms]
[OGL LOG][Proc: 0]init_precond: 0.032 [ms]
[OGL LOG][Proc: 0]generate_solver: 0.001 [ms]
[OGL LOG][Proc: 0]solve: 7687.28 [ms]
[OGL LOG][Proc: 0]copy_x_back: 33.691 [ms]
[OGL LOG][lduLduBase.H:380] 
Statistics:
	Time per iteration: 3453 [mu s]
	Time per iteration and DOF: 0.127889 [ns]
	Retrieve results bandwith 2.137000 [GByte/s]
nonecudaGKOCG:  Solving for p, Initial residual = 0.0164585, Final residual = 4.15874e-05, No Iterations 2226
linear solve p 8132356
time step continuity errors : sum local = 1.26282e-10, global = -9.52207e-23, cumulative = -1.65835e-21
[OGL LOG][Proc: 0]global_index_init: 0.007 [ms]
[OGL LOG][Proc: 0]global_index_init: 0 [ms]
[OGL LOG][Proc: 0]update_host_matrix_data: 230.101 [ms]
[OGL LOG][Proc: 0]gather_global_matrix: 0 [ms]
[OGL LOG][Proc: 0]generate_distributed_matrix: 117.187 [ms]
[OGL LOG][Proc: 0]init_precond: 0.034 [ms]
[OGL LOG][Proc: 0]generate_solver: 0.002 [ms]
[OGL LOG][Proc: 0]solve: 7696.02 [ms]
[OGL LOG][Proc: 0]copy_x_back: 34.52 [ms]
[OGL LOG][lduLduBase.H:380] 
Statistics:
	Time per iteration: 3457 [mu s]
	Time per iteration and DOF: 0.128037 [ns]
	Retrieve results bandwith 2.085000 [GByte/s]
nonecudaGKOCG:  Solving for p, Initial residual = 0.0150975, Final residual = 3.38791e-05, No Iterations 2226
linear solve p 8151242
time step continuity errors : sum local = 1.02952e-10, global = -4.70156e-23, cumulative = -1.70537e-21
ExecutionTime = 1175.45 s  ClockTime = 1178 s

Time = 0.0004

Courant Number mean: 0.00465206 max: 0.0945529
DILUPBiCGStab:  Solving for Ux, Initial residual = 0.0136213, Final residual = 2.69935e-06, No Iterations 5
DILUPBiCGStab:  Solving for Uy, Initial residual = 0.021331, Final residual = 1.58746e-06, No Iterations 5
DILUPBiCGStab:  Solving for Uz, Initial residual = 0.0386625, Final residual = 4.77031e-06, No Iterations 5
linear solve U 12017423
[OGL LOG][Proc: 0]global_index_init: 0.007 [ms]
[OGL LOG][Proc: 0]global_index_init: 0.001 [ms]
[OGL LOG][Proc: 0]update_host_matrix_data: 230.604 [ms]
[OGL LOG][Proc: 0]gather_global_matrix: 0 [ms]
[OGL LOG][Proc: 0]generate_distributed_matrix: 115.053 [ms]
[OGL LOG][Proc: 0]init_precond: 0.033 [ms]
[OGL LOG][Proc: 0]generate_solver: 0.001 [ms]
[OGL LOG][Proc: 0]solve: 7680.63 [ms]
[OGL LOG][Proc: 0]copy_x_back: 34.215 [ms]
[OGL LOG][lduLduBase.H:380] 
Statistics:
	Time per iteration: 3450 [mu s]
	Time per iteration and DOF: 0.127778 [ns]
	Retrieve results bandwith 2.104000 [GByte/s]
nonecudaGKOCG:  Solving for p, Initial residual = 0.0140304, Final residual = 3.8053e-05, No Iterations 2226
linear solve p 8124672
time step continuity errors : sum local = 1.1566e-10, global = -2.52372e-22, cumulative = -1.95774e-21
[OGL LOG][Proc: 0]global_index_init: 0.006 [ms]
[OGL LOG][Proc: 0]global_index_init: 0.001 [ms]
[OGL LOG][Proc: 0]update_host_matrix_data: 230.601 [ms]
[OGL LOG][Proc: 0]gather_global_matrix: 0 [ms]
[OGL LOG][Proc: 0]generate_distributed_matrix: 114.109 [ms]
[OGL LOG][Proc: 0]init_precond: 0.035 [ms]
[OGL LOG][Proc: 0]generate_solver: 0.002 [ms]
[OGL LOG][Proc: 0]solve: 7726.73 [ms]
[OGL LOG][Proc: 0]copy_x_back: 33.365 [ms]
[OGL LOG][lduLduBase.H:380] 
Statistics:
	Time per iteration: 3471 [mu s]
	Time per iteration and DOF: 0.128556 [ns]
	Retrieve results bandwith 2.157000 [GByte/s]
nonecudaGKOCG:  Solving for p, Initial residual = 0.0130136, Final residual = 3.07135e-05, No Iterations 2226
linear solve p 8178231
time step continuity errors : sum local = 9.34226e-11, global = -1.25839e-22, cumulative = -2.08358e-21
ExecutionTime = 1212.18 s  ClockTime = 1215 s

Time = 0.000433333

Courant Number mean: 0.00483364 max: 0.094784
DILUPBiCGStab:  Solving for Ux, Initial residual = 0.0125491, Final residual = 2.27227e-06, No Iterations 5
DILUPBiCGStab:  Solving for Uy, Initial residual = 0.0194756, Final residual = 1.42785e-06, No Iterations 5
DILUPBiCGStab:  Solving for Uz, Initial residual = 0.0356751, Final residual = 4.0062e-06, No Iterations 5
linear solve U 12016496
[OGL LOG][Proc: 0]global_index_init: 0.006 [ms]
[OGL LOG][Proc: 0]global_index_init: 0 [ms]
[OGL LOG][Proc: 0]update_host_matrix_data: 230.385 [ms]
[OGL LOG][Proc: 0]gather_global_matrix: 0 [ms]
[OGL LOG][Proc: 0]generate_distributed_matrix: 109.151 [ms]
[OGL LOG][Proc: 0]init_precond: 0.034 [ms]
[OGL LOG][Proc: 0]generate_solver: 0.002 [ms]
[OGL LOG][Proc: 0]solve: 7685.2 [ms]
[OGL LOG][Proc: 0]copy_x_back: 34.805 [ms]
[OGL LOG][lduLduBase.H:380] 
Statistics:
	Time per iteration: 3452 [mu s]
	Time per iteration and DOF: 0.127852 [ns]
	Retrieve results bandwith 2.068000 [GByte/s]
nonecudaGKOCG:  Solving for p, Initial residual = 0.0123194, Final residual = 3.18763e-05, No Iterations 2226
linear solve p 8134848
time step continuity errors : sum local = 9.69521e-11, global = -2.80008e-22, cumulative = -2.36359e-21
[OGL LOG][Proc: 0]global_index_init: 0.006 [ms]
[OGL LOG][Proc: 0]global_index_init: 0 [ms]
[OGL LOG][Proc: 0]update_host_matrix_data: 229.954 [ms]
[OGL LOG][Proc: 0]gather_global_matrix: 0 [ms]
[OGL LOG][Proc: 0]generate_distributed_matrix: 109.659 [ms]
[OGL LOG][Proc: 0]init_precond: 0.034 [ms]
[OGL LOG][Proc: 0]generate_solver: 0.002 [ms]
[OGL LOG][Proc: 0]solve: 7391.61 [ms]
[OGL LOG][Proc: 0]copy_x_back: 34.403 [ms]
[OGL LOG][lduLduBase.H:380] 
Statistics:
	Time per iteration: 3458 [mu s]
	Time per iteration and DOF: 0.128074 [ns]
	Retrieve results bandwith 2.092000 [GByte/s]
nonecudaGKOCG:  Solving for p, Initial residual = 0.0114619, Final residual = 9.47206e-05, No Iterations 2137
linear solve p 7835509
time step continuity errors : sum local = 2.88272e-10, global = -5.25694e-22, cumulative = -2.88928e-21
ExecutionTime = 1248.57 s  ClockTime = 1252 s

Time = 0.000466667

Courant Number mean: 0.00500521 max: 0.0949862
DILUPBiCGStab:  Solving for Ux, Initial residual = 0.0116345, Final residual = 1.94183e-06, No Iterations 5
DILUPBiCGStab:  Solving for Uy, Initial residual = 0.0179111, Final residual = 1.23615e-06, No Iterations 5
DILUPBiCGStab:  Solving for Uz, Initial residual = 0.0330378, Final residual = 3.4216e-06, No Iterations 5
linear solve U 12053626
[OGL LOG][Proc: 0]global_index_init: 0.009 [ms]
[OGL LOG][Proc: 0]global_index_init: 0 [ms]
[OGL LOG][Proc: 0]update_host_matrix_data: 231.034 [ms]
[OGL LOG][Proc: 0]gather_global_matrix: 0 [ms]
[OGL LOG][Proc: 0]generate_distributed_matrix: 114.261 [ms]
[OGL LOG][Proc: 0]init_precond: 0.035 [ms]
[OGL LOG][Proc: 0]generate_solver: 0.002 [ms]
[OGL LOG][Proc: 0]solve: 7391.75 [ms]
[OGL LOG][Proc: 0]copy_x_back: 33.811 [ms]
[OGL LOG][lduLduBase.H:380] 
Statistics:
	Time per iteration: 3476 [mu s]
	Time per iteration and DOF: 0.128741 [ns]
	Retrieve results bandwith 2.129000 [GByte/s]
nonecudaGKOCG:  Solving for p, Initial residual = 0.0111445, Final residual = 8.4686e-05, No Iterations 2126
linear solve p 7846331
time step continuity errors : sum local = 2.57847e-10, global = -2.72615e-22, cumulative = -3.16189e-21
[OGL LOG][Proc: 0]global_index_init: 0.006 [ms]
[OGL LOG][Proc: 0]global_index_init: 0.001 [ms]
[OGL LOG][Proc: 0]update_host_matrix_data: 230.81 [ms]
[OGL LOG][Proc: 0]gather_global_matrix: 0 [ms]
[OGL LOG][Proc: 0]generate_distributed_matrix: 108.66 [ms]
[OGL LOG][Proc: 0]init_precond: 0.032 [ms]
[OGL LOG][Proc: 0]generate_solver: 0.002 [ms]
[OGL LOG][Proc: 0]solve: 7353.92 [ms]
[OGL LOG][Proc: 0]copy_x_back: 34.795 [ms]
[OGL LOG][lduLduBase.H:380] 
Statistics:
	Time per iteration: 3459 [mu s]
	Time per iteration and DOF: 0.128111 [ns]
	Retrieve results bandwith 2.069000 [GByte/s]
nonecudaGKOCG:  Solving for p, Initial residual = 0.0103928, Final residual = 7.37716e-05, No Iterations 2126
linear solve p 7792369
time step continuity errors : sum local = 2.2474e-10, global = -2.32412e-22, cumulative = -3.39431e-21
ExecutionTime = 1284.58 s  ClockTime = 1288 s

Time = 0.0005

Courant Number mean: 0.00516842 max: 0.0951649
DILUPBiCGStab:  Solving for Ux, Initial residual = 0.0108444, Final residual = 1.68673e-06, No Iterations 5
DILUPBiCGStab:  Solving for Uy, Initial residual = 0.0165756, Final residual = 1.11506e-06, No Iterations 5
DILUPBiCGStab:  Solving for Uz, Initial residual = 0.0307441, Final residual = 2.95238e-06, No Iterations 5
linear solve U 12079764
[OGL LOG][Proc: 0]global_index_init: 0.008 [ms]
[OGL LOG][Proc: 0]global_index_init: 0 [ms]
[OGL LOG][Proc: 0]update_host_matrix_data: 231.181 [ms]
[OGL LOG][Proc: 0]gather_global_matrix: 0 [ms]
[OGL LOG][Proc: 0]generate_distributed_matrix: 113.972 [ms]
[OGL LOG][Proc: 0]init_precond: 0.035 [ms]
[OGL LOG][Proc: 0]generate_solver: 0.001 [ms]
[OGL LOG][Proc: 0]solve: 7361.45 [ms]
[OGL LOG][Proc: 0]copy_x_back: 33.394 [ms]
[OGL LOG][lduLduBase.H:380] 
Statistics:
	Time per iteration: 3462 [mu s]
	Time per iteration and DOF: 0.128222 [ns]
	Retrieve results bandwith 2.156000 [GByte/s]
nonecudaGKOCG:  Solving for p, Initial residual = 0.0102227, Final residual = 6.76906e-05, No Iterations 2126
linear solve p 7813842
time step continuity errors : sum local = 2.06273e-10, global = -6.80964e-23, cumulative = -3.4624e-21
[OGL LOG][Proc: 0]global_index_init: 0.006 [ms]
[OGL LOG][Proc: 0]global_index_init: 0 [ms]
[OGL LOG][Proc: 0]update_host_matrix_data: 230.676 [ms]
[OGL LOG][Proc: 0]gather_global_matrix: 0 [ms]
[OGL LOG][Proc: 0]generate_distributed_matrix: 108.816 [ms]
[OGL LOG][Proc: 0]init_precond: 0.033 [ms]
[OGL LOG][Proc: 0]generate_solver: 0.002 [ms]
[OGL LOG][Proc: 0]solve: 7352.82 [ms]
[OGL LOG][Proc: 0]copy_x_back: 34.521 [ms]
[OGL LOG][lduLduBase.H:380] 
Statistics:
	Time per iteration: 3458 [mu s]
	Time per iteration and DOF: 0.128074 [ns]
	Retrieve results bandwith 2.085000 [GByte/s]
nonecudaGKOCG:  Solving for p, Initial residual = 0.00956026, Final residual = 4.97661e-05, No Iterations 2126
linear solve p 7802490
time step continuity errors : sum local = 1.51723e-10, global = -9.26143e-23, cumulative = -3.55502e-21
ExecutionTime = 1320.65 s  ClockTime = 1324 s

Time = 0.000533333

Courant Number mean: 0.00532375 max: 0.0953243
DILUPBiCGStab:  Solving for Ux, Initial residual = 0.0101548, Final residual = 1.48689e-06, No Iterations 5
DILUPBiCGStab:  Solving for Uy, Initial residual = 0.0154214, Final residual = 9.98262e-07, No Iterations 5
DILUPBiCGStab:  Solving for Uz, Initial residual = 0.0288591, Final residual = 2.58531e-06, No Iterations 5
linear solve U 12027917
[OGL LOG][Proc: 0]global_index_init: 0.007 [ms]
[OGL LOG][Proc: 0]global_index_init: 0 [ms]
[OGL LOG][Proc: 0]update_host_matrix_data: 232.742 [ms]
[OGL LOG][Proc: 0]gather_global_matrix: 0 [ms]
[OGL LOG][Proc: 0]generate_distributed_matrix: 108.526 [ms]
[OGL LOG][Proc: 0]init_precond: 0.033 [ms]
[OGL LOG][Proc: 0]generate_solver: 0.002 [ms]
[OGL LOG][Proc: 0]solve: 7372.59 [ms]
[OGL LOG][Proc: 0]copy_x_back: 33.975 [ms]
[OGL LOG][lduLduBase.H:380] 
Statistics:
	Time per iteration: 3467 [mu s]
	Time per iteration and DOF: 0.128407 [ns]
	Retrieve results bandwith 2.119000 [GByte/s]
nonecudaGKOCG:  Solving for p, Initial residual = 0.00912492, Final residual = 8.01318e-05, No Iterations 2126
linear solve p 7823024
time step continuity errors : sum local = 2.44309e-10, global = -4.75452e-23, cumulative = -3.60256e-21
[OGL LOG][Proc: 0]global_index_init: 0.006 [ms]
[OGL LOG][Proc: 0]global_index_init: 0 [ms]
[OGL LOG][Proc: 0]update_host_matrix_data: 230.252 [ms]
[OGL LOG][Proc: 0]gather_global_matrix: 0 [ms]
[OGL LOG][Proc: 0]generate_distributed_matrix: 113.852 [ms]
[OGL LOG][Proc: 0]init_precond: 0.034 [ms]
[OGL LOG][Proc: 0]generate_solver: 0.002 [ms]
[OGL LOG][Proc: 0]solve: 7352.25 [ms]
[OGL LOG][Proc: 0]copy_x_back: 34.472 [ms]
[OGL LOG][lduLduBase.H:380] 
Statistics:
	Time per iteration: 3458 [mu s]
	Time per iteration and DOF: 0.128074 [ns]
	Retrieve results bandwith 2.088000 [GByte/s]
nonecudaGKOCG:  Solving for p, Initial residual = 0.00855836, Final residual = 5.4299e-05, No Iterations 2126
linear solve p 7806162
time step continuity errors : sum local = 1.65626e-10, global = -1.37997e-22, cumulative = -3.74056e-21
ExecutionTime = 1356.67 s  ClockTime = 1360 s

Time = 0.000566667

Courant Number mean: 0.00547247 max: 0.0954678
DILUPBiCGStab:  Solving for Ux, Initial residual = 0.00954787, Final residual = 1.32909e-06, No Iterations 5
[...]
linear solve p 244056
time step continuity errors : sum local = 8.73722e-10, global = -7.20211e-22, cumulative = -4.16098e-21
[OGL LOG][Proc: 0]global_index_init: 0.004 [ms]
[OGL LOG][Proc: 0]global_index_init: 0.001 [ms]
[OGL LOG][Proc: 0]update_host_matrix_data: 6.636 [ms]
[OGL LOG][Proc: 0]gather_global_matrix: 0 [ms]
[OGL LOG][Proc: 0]generate_distributed_matrix: 8.988 [ms]
[OGL LOG][Proc: 0]init_precond: 0.027 [ms]
[OGL LOG][Proc: 0]generate_solver: 0.001 [ms]
[OGL LOG][Proc: 0]solve: 216.899 [ms]
[OGL LOG][Proc: 0]copy_x_back: 0.632 [ms]
[OGL LOG][lduLduBase.H:380] 
Statistics:
	Time per iteration: 322 [mu s]
	Time per iteration and DOF: 0.322000 [ns]
	Retrieve results bandwith 3.164000 [GByte/s]
nonecudaGKOCG:  Solving for p, Initial residual = 0.00823078, Final residual = 9.82179e-05, No Iterations 673
linear solve p 236705
time step continuity errors : sum local = 2.39584e-09, global = 5.54212e-22, cumulative = -3.60677e-21
ExecutionTime = 14.22 s  ClockTime = 16 s

Time = 0.0012

Courant Number mean: 0.00722379 max: 0.0900356
DILUPBiCGStab:  Solving for Ux, Initial residual = 0.0147484, Final residual = 3.82109e-08, No Iterations 5
DILUPBiCGStab:  Solving for Uy, Initial residual = 0.0202882, Final residual = 1.15587e-08, No Iterations 5
DILUPBiCGStab:  Solving for Uz, Initial residual = 0.0381764, Final residual = 2.7301e-08, No Iterations 5
linear solve U 276499
[OGL LOG][Proc: 0]global_index_init: 0.005 [ms]
[OGL LOG][Proc: 0]global_index_init: 0.001 [ms]
[OGL LOG][Proc: 0]update_host_matrix_data: 6.487 [ms]
[OGL LOG][Proc: 0]gather_global_matrix: 0 [ms]
[OGL LOG][Proc: 0]generate_distributed_matrix: 9.186 [ms]
[OGL LOG][Proc: 0]init_precond: 0.026 [ms]
[OGL LOG][Proc: 0]generate_solver: 0.001 [ms]
[OGL LOG][Proc: 0]solve: 211.692 [ms]
[OGL LOG][Proc: 0]copy_x_back: 0.888 [ms]
[OGL LOG][lduLduBase.H:380] 
Statistics:
	Time per iteration: 312 [mu s]
	Time per iteration and DOF: 0.312000 [ns]
	Retrieve results bandwith 2.252000 [GByte/s]
nonecudaGKOCG:  Solving for p, Initial residual = 0.00901389, Final residual = 9.21201e-05, No Iterations 677
linear solve p 231953
time step continuity errors : sum local = 2.25012e-09, global = -1.88658e-21, cumulative = -5.49336e-21
[OGL LOG][Proc: 0]global_index_init: 0.004 [ms]
[OGL LOG][Proc: 0]global_index_init: 0.001 [ms]
[OGL LOG][Proc: 0]update_host_matrix_data: 6.427 [ms]
[OGL LOG][Proc: 0]gather_global_matrix: 0 [ms]
[OGL LOG][Proc: 0]generate_distributed_matrix: 9.17 [ms]
[OGL LOG][Proc: 0]init_precond: 0.025 [ms]
[OGL LOG][Proc: 0]generate_solver: 0.001 [ms]
[OGL LOG][Proc: 0]solve: 209.195 [ms]
[OGL LOG][Proc: 0]copy_x_back: 0.621 [ms]
[OGL LOG][lduLduBase.H:380] 
Statistics:
	Time per iteration: 309 [mu s]
	Time per iteration and DOF: 0.309000 [ns]
	Retrieve results bandwith 3.220000 [GByte/s]
nonecudaGKOCG:  Solving for p, Initial residual = 0.00733618, Final residual = 7.57805e-05, No Iterations 676
linear solve p 229053
time step continuity errors : sum local = 1.85367e-09, global = -9.17369e-22, cumulative = -6.41072e-21
ExecutionTime = 15.14 s  ClockTime = 17 s

Time = 0.0013

Courant Number mean: 0.00748302 max: 0.0904387
DILUPBiCGStab:  Solving for Ux, Initial residual = 0.0134671, Final residual = 3.45606e-08, No Iterations 5
DILUPBiCGStab:  Solving for Uy, Initial residual = 0.0184652, Final residual = 9.97588e-09, No Iterations 5
DILUPBiCGStab:  Solving for Uz, Initial residual = 0.035048, Final residual = 2.42782e-08, No Iterations 5
linear solve U 278368
[OGL LOG][Proc: 0]global_index_init: 0.006 [ms]
[OGL LOG][Proc: 0]global_index_init: 0.001 [ms]
[OGL LOG][Proc: 0]update_host_matrix_data: 6.556 [ms]
[OGL LOG][Proc: 0]gather_global_matrix: 0 [ms]
[OGL LOG][Proc: 0]generate_distributed_matrix: 9.059 [ms]
[OGL LOG][Proc: 0]init_precond: 0.025 [ms]
[OGL LOG][Proc: 0]generate_solver: 0.001 [ms]
[OGL LOG][Proc: 0]solve: 212.757 [ms]
[OGL LOG][Proc: 0]copy_x_back: 0.648 [ms]
[OGL LOG][lduLduBase.H:380] 
Statistics:
	Time per iteration: 314 [mu s]
	Time per iteration and DOF: 0.314000 [ns]
	Retrieve results bandwith 3.086000 [GByte/s]
nonecudaGKOCG:  Solving for p, Initial residual = 0.00804865, Final residual = 8.88772e-05, No Iterations 676
linear solve p 232641
time step continuity errors : sum local = 2.17662e-09, global = -3.95695e-22, cumulative = -6.80642e-21
[OGL LOG][Proc: 0]global_index_init: 0.005 [ms]
[OGL LOG][Proc: 0]global_index_init: 0.001 [ms]
[OGL LOG][Proc: 0]update_host_matrix_data: 6.515 [ms]
[OGL LOG][Proc: 0]gather_global_matrix: 0 [ms]
[OGL LOG][Proc: 0]generate_distributed_matrix: 9.102 [ms]
[OGL LOG][Proc: 0]init_precond: 0.026 [ms]
[OGL LOG][Proc: 0]generate_solver: 0.001 [ms]
[OGL LOG][Proc: 0]solve: 216.427 [ms]
[OGL LOG][Proc: 0]copy_x_back: 0.623 [ms]
[OGL LOG][lduLduBase.H:380] 
Statistics:
	Time per iteration: 320 [mu s]
	Time per iteration and DOF: 0.320000 [ns]
	Retrieve results bandwith 3.210000 [GByte/s]
nonecudaGKOCG:  Solving for p, Initial residual = 0.00657133, Final residual = 6.15543e-05, No Iterations 676
linear solve p 236281
time step continuity errors : sum local = 1.50937e-09, global = 1.24443e-22, cumulative = -6.68198e-21
ExecutionTime = 16.06 s  ClockTime = 18 s

Time = 0.0014

Courant Number mean: 0.00772783 max: 0.0907903
DILUPBiCGStab:  Solving for Ux, Initial residual = 0.0123794, Final residual = 3.14356e-08, No Iterations 5
DILUPBiCGStab:  Solving for Uy, Initial residual = 0.0169325, Final residual = 8.75867e-09, No Iterations 5
DILUPBiCGStab:  Solving for Uz, Initial residual = 0.0323887, Final residual = 2.19515e-08, No Iterations 5
linear solve U 278109
[OGL LOG][Proc: 0]global_index_init: 0.005 [ms]
[OGL LOG][Proc: 0]global_index_init: 0 [ms]
[OGL LOG][Proc: 0]update_host_matrix_data: 6.517 [ms]
[OGL LOG][Proc: 0]gather_global_matrix: 0 [ms]
[OGL LOG][Proc: 0]generate_distributed_matrix: 9.02 [ms]
[OGL LOG][Proc: 0]init_precond: 0.025 [ms]
[OGL LOG][Proc: 0]generate_solver: 0.001 [ms]
[OGL LOG][Proc: 0]solve: 210.607 [ms]
[OGL LOG][Proc: 0]copy_x_back: 0.692 [ms]
[OGL LOG][lduLduBase.H:380] 
Statistics:
	Time per iteration: 311 [mu s]
	Time per iteration and DOF: 0.311000 [ns]
	Retrieve results bandwith 2.890000 [GByte/s]
nonecudaGKOCG:  Solving for p, Initial residual = 0.00719107, Final residual = 8.14785e-05, No Iterations 676
linear solve p 230337
time step continuity errors : sum local = 1.99991e-09, global = 1.5087e-22, cumulative = -6.53111e-21
[OGL LOG][Proc: 0]global_index_init: 0.005 [ms]
[OGL LOG][Proc: 0]global_index_init: 0.001 [ms]
[OGL LOG][Proc: 0]update_host_matrix_data: 6.564 [ms]
[OGL LOG][Proc: 0]gather_global_matrix: 0 [ms]
[OGL LOG][Proc: 0]generate_distributed_matrix: 9.022 [ms]
[OGL LOG][Proc: 0]init_precond: 0.025 [ms]
[OGL LOG][Proc: 0]generate_solver: 0.001 [ms]
[OGL LOG][Proc: 0]solve: 217.05 [ms]
[OGL LOG][Proc: 0]copy_x_back: 0.654 [ms]
[OGL LOG][lduLduBase.H:380] 
Statistics:
	Time per iteration: 321 [mu s]
	Time per iteration and DOF: 0.321000 [ns]
	Retrieve results bandwith 3.058000 [GByte/s]
nonecudaGKOCG:  Solving for p, Initial residual = 0.00589801, Final residual = 5.4301e-05, No Iterations 676
linear solve p 236822
time step continuity errors : sum local = 1.33433e-09, global = 4.3586e-23, cumulative = -6.48752e-21
ExecutionTime = 16.97 s  ClockTime = 19 s

Time = 0.0015

Courant Number mean: 0.00795861 max: 0.0911006
DILUPBiCGStab:  Solving for Ux, Initial residual = 0.011447, Final residual = 2.87268e-08, No Iterations 5
DILUPBiCGStab:  Solving for Uy, Initial residual = 0.0156259, Final residual = 7.75724e-09, No Iterations 5
DILUPBiCGStab:  Solving for Uz, Initial residual = 0.0300847, Final residual = 2.0157e-08, No Iterations 5
linear solve U 278413
[OGL LOG][Proc: 0]global_index_init: 0.004 [ms]
[OGL LOG][Proc: 0]global_index_init: 0.001 [ms]
[OGL LOG][Proc: 0]update_host_matrix_data: 6.55 [ms]
[OGL LOG][Proc: 0]gather_global_matrix: 0 [ms]
[OGL LOG][Proc: 0]generate_distributed_matrix: 8.988 [ms]
[OGL LOG][Proc: 0]init_precond: 0.025 [ms]
[OGL LOG][Proc: 0]generate_solver: 0.002 [ms]
[OGL LOG][Proc: 0]solve: 217.549 [ms]
[OGL LOG][Proc: 0]copy_x_back: 0.723 [ms]
[OGL LOG][lduLduBase.H:380] 
Statistics:
	Time per iteration: 321 [mu s]
	Time per iteration and DOF: 0.321000 [ns]
	Retrieve results bandwith 2.766000 [GByte/s]
nonecudaGKOCG:  Solving for p, Initial residual = 0.00650175, Final residual = 7.36649e-05, No Iterations 676
linear solve p 237365
time step continuity errors : sum local = 1.81179e-09, global = -3.05831e-22, cumulative = -6.79335e-21
[OGL LOG][Proc: 0]global_index_init: 0.005 [ms]
[OGL LOG][Proc: 0]global_index_init: 0.001 [ms]
[OGL LOG][Proc: 0]update_host_matrix_data: 6.616 [ms]
[OGL LOG][Proc: 0]gather_global_matrix: 0 [ms]
[OGL LOG][Proc: 0]generate_distributed_matrix: 9.096 [ms]
[OGL LOG][Proc: 0]init_precond: 0.025 [ms]
[OGL LOG][Proc: 0]generate_solver: 0.002 [ms]
[OGL LOG][Proc: 0]solve: 169.943 [ms]
[OGL LOG][Proc: 0]copy_x_back: 0.673 [ms]
[OGL LOG][lduLduBase.H:380] 
Statistics:
	Time per iteration: 314 [mu s]
	Time per iteration and DOF: 0.314000 [ns]
	Retrieve results bandwith 2.971000 [GByte/s]
nonecudaGKOCG:  Solving for p, Initial residual = 0.00534428, Final residual = 9.88748e-05, No Iterations 541
linear solve p 189857
time step continuity errors : sum local = 2.46993e-09, global = -2.36749e-22, cumulative = -7.0301e-21
ExecutionTime = 17.85 s  ClockTime = 19 s

Time = 0.0016

Courant Number mean: 0.00817648 max: 0.091377
DILUPBiCGStab:  Solving for Ux, Initial residual = 0.0106401, Final residual = 2.63438e-08, No Iterations 5
DILUPBiCGStab:  Solving for Uy, Initial residual = 0.0145001, Final residual = 6.91862e-09, No Iterations 5
DILUPBiCGStab:  Solving for Uz, Initial residual = 0.0280947, Final residual = 1.98373e-08, No Iterations 5
linear solve U 278192
[OGL LOG][Proc: 0]global_index_init: 0.005 [ms]
[OGL LOG][Proc: 0]global_index_init: 0.001 [ms]
[OGL LOG][Proc: 0]update_host_matrix_data: 6.513 [ms]
[OGL LOG][Proc: 0]gather_global_matrix: 0 [ms]
[OGL LOG][Proc: 0]generate_distributed_matrix: 9.149 [ms]
[OGL LOG][Proc: 0]init_precond: 0.026 [ms]
[OGL LOG][Proc: 0]generate_solver: 0.001 [ms]
[OGL LOG][Proc: 0]solve: 140.846 [ms]
[OGL LOG][Proc: 0]copy_x_back: 0.638 [ms]
[OGL LOG][lduLduBase.H:380] 
Statistics:
	Time per iteration: 318 [mu s]
	Time per iteration and DOF: 0.318000 [ns]
	Retrieve results bandwith 3.134000 [GByte/s]
nonecudaGKOCG:  Solving for p, Initial residual = 0.00596831, Final residual = 1.06947e-05, No Iterations 442
linear solve p 160631
time step continuity errors : sum local = 2.92385e-10, global = 7.33214e-22, cumulative = -6.29689e-21
[OGL LOG][Proc: 0]global_index_init: 0.004 [ms]
[OGL LOG][Proc: 0]global_index_init: 0.001 [ms]
[OGL LOG][Proc: 0]update_host_matrix_data: 6.502 [ms]
[OGL LOG][Proc: 0]gather_global_matrix: 0 [ms]
[OGL LOG][Proc: 0]generate_distributed_matrix: 8.702 [ms]
[OGL LOG][Proc: 0]init_precond: 0.033 [ms]
[OGL LOG][Proc: 0]generate_solver: 0.002 [ms]
[OGL LOG][Proc: 0]solve: 121.241 [ms]
[OGL LOG][Proc: 0]copy_x_back: 0.618 [ms]
[OGL LOG][lduLduBase.H:380] 
Statistics:
	Time per iteration: 338 [mu s]
	Time per iteration and DOF: 0.338000 [ns]
	Retrieve results bandwith 3.236000 [GByte/s]
nonecudaGKOCG:  Solving for p, Initial residual = 0.0048652, Final residual = 1.40393e-05, No Iterations 358
linear solve p 140600
time step continuity errors : sum local = 3.86677e-10, global = -3.52312e-22, cumulative = -6.6492e-21
ExecutionTime = 18.6 s  ClockTime = 20 s

Time = 0.0017

Courant Number mean: 0.00838249 max: 0.0916252
DILUPBiCGStab:  Solving for Ux, Initial residual = 0.00993241, Final residual = 2.42384e-08, No Iterations 5
DILUPBiCGStab:  Solving for Uy, Initial residual = 0.0135174, Final residual = 6.24457e-09, No Iterations 5
DILUPBiCGStab:  Solving for Uz, Initial residual = 0.026359, Final residual = 1.73226e-08, No Iterations 5
linear solve U 278381
[OGL LOG][Proc: 0]global_index_init: 0.005 [ms]
[OGL LOG][Proc: 0]global_index_init: 0.001 [ms]
[OGL LOG][Proc: 0]update_host_matrix_data: 6.575 [ms]
[OGL LOG][Proc: 0]gather_global_matrix: 0 [ms]
[OGL LOG][Proc: 0]generate_distributed_matrix: 9.132 [ms]
[OGL LOG][Proc: 0]init_precond: 0.025 [ms]
[OGL LOG][Proc: 0]generate_solver: 0.002 [ms]
[OGL LOG][Proc: 0]solve: 102.582 [ms]
[OGL LOG][Proc: 0]copy_x_back: 0.648 [ms]
[OGL LOG][lduLduBase.H:380] 
Statistics:
	Time per iteration: 347 [mu s]
	Time per iteration and DOF: 0.347000 [ns]
	Retrieve results bandwith 3.086000 [GByte/s]
nonecudaGKOCG:  Solving for p, Initial residual = 0.00536026, Final residual = 3.24539e-05, No Iterations 295
linear solve p 122485
time step continuity errors : sum local = 8.11859e-10, global = -1.58172e-21, cumulative = -8.23092e-21
[OGL LOG][Proc: 0]global_index_init: 0.005 [ms]
[OGL LOG][Proc: 0]global_index_init: 0.001 [ms]
[OGL LOG][Proc: 0]update_host_matrix_data: 6.514 [ms]
[OGL LOG][Proc: 0]gather_global_matrix: 0 [ms]
[OGL LOG][Proc: 0]generate_distributed_matrix: 9.081 [ms]
[OGL LOG][Proc: 0]init_precond: 0.029 [ms]
[OGL LOG][Proc: 0]generate_solver: 0.001 [ms]
[OGL LOG][Proc: 0]solve: 93.622 [ms]
[OGL LOG][Proc: 0]copy_x_back: 0.644 [ms]
[OGL LOG][lduLduBase.H:380] 
Statistics:
	Time per iteration: 353 [mu s]
	Time per iteration and DOF: 0.353000 [ns]
	Retrieve results bandwith 3.105000 [GByte/s]
nonecudaGKOCG:  Solving for p, Initial residual = 0.00439745, Final residual = 7.70959e-05, No Iterations 265
linear solve p 113385
time step continuity errors : sum local = 1.93493e-09, global = -4.42556e-22, cumulative = -8.67348e-21
ExecutionTime = 19.3 s  ClockTime = 21 s

Time = 0.0018

Courant Number mean: 0.00857955 max: 0.0918497
DILUPBiCGStab:  Solving for Ux, Initial residual = 0.00931084, Final residual = 2.23694e-08, No Iterations 5
DILUPBiCGStab:  Solving for Uy, Initial residual = 0.0126548, Final residual = 5.65997e-09, No Iterations 5
DILUPBiCGStab:  Solving for Uz, Initial residual = 0.024771, Final residual = 1.65917e-08, No Iterations 5
linear solve U 279231
[OGL LOG][Proc: 0]global_index_init: 0.005 [ms]
[OGL LOG][Proc: 0]global_index_init: 0.001 [ms]
[OGL LOG][Proc: 0]update_host_matrix_data: 6.534 [ms]
[OGL LOG][Proc: 0]gather_global_matrix: 0 [ms]
[OGL LOG][Proc: 0]generate_distributed_matrix: 9.075 [ms]
[OGL LOG][Proc: 0]init_precond: 0.039 [ms]
[OGL LOG][Proc: 0]generate_solver: 0.002 [ms]
[OGL LOG][Proc: 0]solve: 98.358 [ms]
[OGL LOG][Proc: 0]copy_x_back: 0.66 [ms]
[OGL LOG][lduLduBase.H:380] 
Statistics:
	Time per iteration: 362 [mu s]
	Time per iteration and DOF: 0.362000 [ns]
	Retrieve results bandwith 3.030000 [GByte/s]
nonecudaGKOCG:  Solving for p, Initial residual = 0.00502504, Final residual = 7.15768e-05, No Iterations 271
linear solve p 118114
time step continuity errors : sum local = 1.77588e-09, global = -1.98643e-21, cumulative = -1.06599e-20
[OGL LOG][Proc: 0]global_index_init: 0.005 [ms]
[OGL LOG][Proc: 0]global_index_init: 0 [ms]
[OGL LOG][Proc: 0]update_host_matrix_data: 6.413 [ms]
[OGL LOG][Proc: 0]gather_global_matrix: 0 [ms]
[OGL LOG][Proc: 0]generate_distributed_matrix: 9.316 [ms]
[OGL LOG][Proc: 0]init_precond: 0.025 [ms]
[OGL LOG][Proc: 0]generate_solver: 0.002 [ms]
[OGL LOG][Proc: 0]solve: 94.048 [ms]
[OGL LOG][Proc: 0]copy_x_back: 0.64 [ms]
[OGL LOG][lduLduBase.H:380] 
Statistics:
	Time per iteration: 360 [mu s]
	Time per iteration and DOF: 0.360000 [ns]
	Retrieve results bandwith 3.125000 [GByte/s]
nonecudaGKOCG:  Solving for p, Initial residual = 0.0041345, Final residual = 8.75815e-05, No Iterations 261
linear solve p 114006
time step continuity errors : sum local = 2.19032e-09, global = -1.57132e-21, cumulative = -1.22312e-20
ExecutionTime = 19.98 s  ClockTime = 22 s

Time = 0.0019

Courant Number mean: 0.00876812 max: 0.092054
DILUPBiCGStab:  Solving for Ux, Initial residual = 0.00875808, Final residual = 2.07017e-08, No Iterations 5
DILUPBiCGStab:  Solving for Uy, Initial residual = 0.0118905, Final residual = 5.13341e-09, No Iterations 5
DILUPBiCGStab:  Solving for Uz, Initial residual = 0.0233606, Final residual = 1.56971e-08, No Iterations 5
linear solve U 278173
[OGL LOG][Proc: 0]global_index_init: 0.005 [ms]
[OGL LOG][Proc: 0]global_index_init: 0.001 [ms]
[OGL LOG][Proc: 0]update_host_matrix_data: 6.486 [ms]
[OGL LOG][Proc: 0]gather_global_matrix: 0 [ms]
[OGL LOG][Proc: 0]generate_distributed_matrix: 9.295 [ms]
[OGL LOG][Proc: 0]init_precond: 0.025 [ms]
[OGL LOG][Proc: 0]generate_solver: 0.001 [ms]
[OGL LOG][Proc: 0]solve: 96.981 [ms]
[OGL LOG][Proc: 0]copy_x_back: 0.647 [ms]
[OGL LOG][lduLduBase.H:380] 
Statistics:
	Time per iteration: 357 [mu s]
	Time per iteration and DOF: 0.357000 [ns]
	Retrieve results bandwith 3.091000 [GByte/s]
nonecudaGKOCG:  Solving for p, Initial residual = 0.00468707, Final residual = 6.96206e-05, No Iterations 271
linear solve p 116915
time step continuity errors : sum local = 1.72404e-09, global = -1.60744e-21, cumulative = -1.38387e-20
[OGL LOG][Proc: 0]global_index_init: 0.005 [ms]
[OGL LOG][Proc: 0]global_index_init: 0 [ms]
[OGL LOG][Proc: 0]update_host_matrix_data: 6.518 [ms]
[OGL LOG][Proc: 0]gather_global_matrix: 0 [ms]
[OGL LOG][Proc: 0]generate_distributed_matrix: 9.145 [ms]
[OGL LOG][Proc: 0]init_precond: 0.029 [ms]
[OGL LOG][Proc: 0]generate_solver: 0.002 [ms]
[OGL LOG][Proc: 0]solve: 94.116 [ms]
[OGL LOG][Proc: 0]copy_x_back: 0.628 [ms]
[OGL LOG][lduLduBase.H:380] 
Statistics:
	Time per iteration: 360 [mu s]
	Time per iteration and DOF: 0.360000 [ns]
	Retrieve results bandwith 3.184000 [GByte/s]
nonecudaGKOCG:  Solving for p, Initial residual = 0.00385961, Final residual = 8.15934e-05, No Iterations 261
linear solve p 113899
time step continuity errors : sum local = 2.0382e-09, global = -1.70631e-21, cumulative = -1.5545e-20
ExecutionTime = 20.66 s  ClockTime = 22 s

Time = 0.002

Courant Number mean: 0.00894849 max: 0.0922409
DILUPBiCGStab:  Solving for Ux, Initial residual = 0.0082609, Final residual = 1.92009e-08, No Iterations 5
DILUPBiCGStab:  Solving for Uy, Initial residual = 0.0112089, Final residual = 4.69136e-09, No Iterations 5
DILUPBiCGStab:  Solving for Uz, Initial residual = 0.0220945, Final residual = 1.48316e-08, No Iterations 5
linear solve U 278763
[OGL LOG][Proc: 0]global_index_init: 0.005 [ms]
[OGL LOG][Proc: 0]global_index_init: 0 [ms]
[OGL LOG][Proc: 0]update_host_matrix_data: 6.598 [ms]
[OGL LOG][Proc: 0]gather_global_matrix: 0 [ms]
[OGL LOG][Proc: 0]generate_distributed_matrix: 9.237 [ms]
[OGL LOG][Proc: 0]init_precond: 0.025 [ms]
[OGL LOG][Proc: 0]generate_solver: 0.001 [ms]
[OGL LOG][Proc: 0]solve: 93.65 [ms]
[OGL LOG][Proc: 0]copy_x_back: 0.652 [ms]
[OGL LOG][lduLduBase.H:380] 
Statistics:
	Time per iteration: 358 [mu s]
	Time per iteration and DOF: 0.358000 [ns]
	Retrieve results bandwith 3.067000 [GByte/s]
nonecudaGKOCG:  Solving for p, Initial residual = 0.00432834, Final residual = 9.40449e-05, No Iterations 261
linear solve p 113664
time step continuity errors : sum local = 2.33358e-09, global = -1.64305e-21, cumulative = -1.7188e-20
[OGL LOG][Proc: 0]global_index_init: 0.005 [ms]
[OGL LOG][Proc: 0]global_index_init: 0.001 [ms]
[OGL LOG][Proc: 0]update_host_matrix_data: 6.549 [ms]
[OGL LOG][Proc: 0]gather_global_matrix: 0 [ms]
[OGL LOG][Proc: 0]generate_distributed_matrix: 9.186 [ms]
[OGL LOG][Proc: 0]init_precond: 0.032 [ms]
[OGL LOG][Proc: 0]generate_solver: 0.002 [ms]
[OGL LOG][Proc: 0]solve: 93.782 [ms]
[OGL LOG][Proc: 0]copy_x_back: 0.653 [ms]
[OGL LOG][lduLduBase.H:380] 
Statistics:
	Time per iteration: 359 [mu s]
	Time per iteration and DOF: 0.359000 [ns]
	Retrieve results bandwith 3.062000 [GByte/s]
nonecudaGKOCG:  Solving for p, Initial residual = 0.00359961, Final residual = 6.89615e-05, No Iterations 261
linear solve p 113743
time step continuity errors : sum local = 1.72152e-09, global = -2.95083e-22, cumulative = -1.74831e-20
ExecutionTime = 21.34 s  ClockTime = 23 s

End

Finalising parallel run
================================================================================
