hash: af598a0b57d47a729568d625110ef48e
/*---------------------------------------------------------------------------*\
| =========                 |                                                 |
| \\      /  F ield         | OpenFOAM: The Open Source CFD Toolbox           |
|  \\    /   O peration     | Version:  v2106                                 |
|   \\  /    A nd           | Website:  www.openfoam.com                      |
|    \\/     M anipulation  |                                                 |
\*---------------------------------------------------------------------------*/
Build  : f815a12bba-20210902 OPENFOAM=2106
Arch   : "LSB;label=32;scalar=64"
Exec   : simpleFoam -parallel
Date   : Jan 20 2022
Time   : 21:09:55
Host   : nla-gpu2.ianm.kit.edu
PID    : 2042994
I/O    : uncollated
Case   : /home/greole/data/code/ogl_labbook/motorcycle_resolution/resolution/Variation_mesh/Large/Variation_matrix_solver/CG_BJ_HIP/Variation_mpiRank/32/base
nProcs : 32
Hosts  :
(
    (nla-gpu2.ianm.kit.edu 32)
)
Pstream initialized with:
    floatTransfer      : 0
    nProcsSimpleSum    : 0
    commsType          : nonBlocking
    polling iterations : 0
trapFpe: Floating point exception trapping enabled (FOAM_SIGFPE).
fileModificationChecking : Monitoring run-time modified files using timeStampMaster (fileModificationSkew 5, maxFileModificationPolls 20)
allowSystemOperations : Allowing user-supplied system call operations

// * * * * * * * * * * * * * * * * * * * * * * * * * * * * * * * * * * * * * //
Create time

Create mesh for time = 0


SIMPLE: no convergence criteria found. Calculations will run for 3 steps.

Reading field p

Reading field U

Reading/calculating face flux field phi

Selecting incompressible transport model Newtonian
Selecting turbulence model type RAS
Selecting RAS turbulence model kOmegaSST
Selecting patchDistMethod meshWave
RAS
{
    RASModel        kOmegaSST;
    turbulence      on;
    printCoeffs     on;
    alphaK1         0.85;
    alphaK2         1;
    alphaOmega1     0.5;
    alphaOmega2     0.856;
    gamma1          0.555555555556;
    gamma2          0.44;
    beta1           0.075;
    beta2           0.0828;
    betaStar        0.09;
    a1              0.31;
    b1              1;
    c1              10;
    F3              false;
    decayControl    false;
    kInf            0;
    omegaInf        0;
}

No MRF models present

No finite volume options present

Starting time loop

Time = 1

DILUPBiCGStab:  Solving for Ux, Initial residual = 0.0298408185319, Final residual = 0.0023442936585, No Iterations 3
DILUPBiCGStab:  Solving for Uy, Initial residual = 0.416436010106, Final residual = 0.0343159774748, No Iterations 3
DILUPBiCGStab:  Solving for Uz, Initial residual = 0.262309071038, Final residual = 0.0121250711235, No Iterations 3
linear solve U 1625540
[OGL LOG][Proc: 0]global_index_init : 261571 mu s
[OGL LOG][Proc: 0]global_index_init : 6 mu s
[OGL LOG][Proc: 0]global_index_init : 6 mu s
[OGL LOG][Proc: 0]global_index_init : 7 mu s
[OGL LOG][Proc: 0]init_host_sparsity_pattern : 5940950 mu s
[OGL LOG][Proc: 0]update_host_matrix_data : 45879 mu s
[OGL LOG][Proc: 0]convert_coo_to_csr : 314234 mu s
[OGL LOG][Proc: 0]gather_global_matrix : 0 mu s
 block size 1
[OGL LOG][Proc: 0]init_precond : 349340 mu s
[OGL LOG][Proc: 0]generate_solver : 21 mu s
[OGL LOG][Proc: 0]solve : 19020629 mu s
[OGL LOG][Proc: 0]retrieve_result_from_device : 74545 mu s
BJhipGKOCG:  Solving for p, Initial residual = 1, Final residual = 0.00999607067914, No Iterations 310
linear solve p 43860060
time step continuity errors : sum local = 0.000822212073768, global = 1.6303070086e-05, cumulative = 1.6303070086e-05
DILUPBiCGStab:  Solving for omega, Initial residual = 0.00231518660431, Final residual = 5.70189648098e-05, No Iterations 1
linear solve omega 280125
bounding omega, min: -64021.0409441 max: 2809464.71271 average: 2480.21483321
DILUPBiCGStab:  Solving for k, Initial residual = 0.999999999282, Final residual = 0.0479519272134, No Iterations 1
linear solve k 247983
ExecutionTime = 66.55 s  ClockTime = 66 s

Time = 2

DILUPBiCGStab:  Solving for Ux, Initial residual = 0.0152139175508, Final residual = 0.00107174283995, No Iterations 3
DILUPBiCGStab:  Solving for Uy, Initial residual = 0.262342045434, Final residual = 0.0184611000169, No Iterations 3
DILUPBiCGStab:  Solving for Uz, Initial residual = 0.129723505005, Final residual = 0.00712275887823, No Iterations 3
linear solve U 1388231
[OGL LOG][Proc: 0]global_index_init : 1327 mu s
[OGL LOG][Proc: 0]global_index_init : 6 mu s
[OGL LOG][Proc: 0]global_index_init : 11 mu s
[OGL LOG][Proc: 0]global_index_init : 9 mu s
[OGL LOG][Proc: 0]update_host_matrix_data : 77631 mu s
[OGL LOG][Proc: 0]gather_global_matrix : 0 mu s
 block size 1
[OGL LOG][Proc: 0]init_precond : 320576 mu s
[OGL LOG][Proc: 0]generate_solver : 2 mu s
[OGL LOG][Proc: 0]solve : 15966066 mu s
[OGL LOG][Proc: 0]retrieve_result_from_device : 316449 mu s
BJhipGKOCG:  Solving for p, Initial residual = 0.034851714079, Final residual = 0.000275843464761, No Iterations 301
linear solve p 18098927
time step continuity errors : sum local = 0.103663591243, global = -6.2522820277e-05, cumulative = -4.6219750191e-05
DILUPBiCGStab:  Solving for omega, Initial residual = 0.00177749164725, Final residual = 4.54699657843e-05, No Iterations 1
linear solve omega 283033
bounding omega, min: -214.692999416 max: 2809572.6091 average: 2823.18901929
DILUPBiCGStab:  Solving for k, Initial residual = 0.0314809492914, Final residual = 0.00134041260197, No Iterations 1
linear solve k 254221
ExecutionTime = 90.87 s  ClockTime = 90 s

Time = 3

DILUPBiCGStab:  Solving for Ux, Initial residual = 0.0759234404129, Final residual = 0.0070328704358, No Iterations 7
DILUPBiCGStab:  Solving for Uy, Initial residual = 0.497263129236, Final residual = 0.0460761611486, No Iterations 7
DILUPBiCGStab:  Solving for Uz, Initial residual = 0.469044309313, Final residual = 0.0445159860623, No Iterations 7
linear solve U 3164496
[OGL LOG][Proc: 0]global_index_init : 1262 mu s
[OGL LOG][Proc: 0]global_index_init : 5 mu s
[OGL LOG][Proc: 0]global_index_init : 9 mu s
[OGL LOG][Proc: 0]global_index_init : 10 mu s
[OGL LOG][Proc: 0]update_host_matrix_data : 77863 mu s
[OGL LOG][Proc: 0]gather_global_matrix : 0 mu s
 block size 1
[OGL LOG][Proc: 0]init_precond : 19728 mu s
[OGL LOG][Proc: 0]generate_solver : 2 mu s
[OGL LOG][Proc: 0]solve : 12762879 mu s
[OGL LOG][Proc: 0]retrieve_result_from_device : 326343 mu s
BJhipGKOCG:  Solving for p, Initial residual = 0.962853028717, Final residual = 0.00312831994432, No Iterations 241
linear solve p 14596765
time step continuity errors : sum local = 4282.05455014, global = -0.0108536763241, cumulative = -0.0108998960743
DILUPBiCGStab:  Solving for omega, Initial residual = 0.0850483915579, Final residual = 0.000358365559446, No Iterations 1
linear solve omega 230038
DILUPBiCGStab:  Solving for k, Initial residual = 0.133442490494, Final residual = 0.000293533448144, No Iterations 1
linear solve k 250466
ExecutionTime = 113.29 s  ClockTime = 112 s

End

Finalising parallel run
================================================================================
hash: f56a88979bc214725ac348f66d5376b7
/*---------------------------------------------------------------------------*\
| =========                 |                                                 |
| \\      /  F ield         | OpenFOAM: The Open Source CFD Toolbox           |
|  \\    /   O peration     | Version:  v2106                                 |
|   \\  /    A nd           | Website:  www.openfoam.com                      |
|    \\/     M anipulation  |                                                 |
\*---------------------------------------------------------------------------*/
Build  : f815a12bba-20210902 OPENFOAM=2106
Arch   : "LSB;label=32;scalar=64"
Exec   : simpleFoam -parallel
Date   : Jan 20 2022
Time   : 21:11:48
Host   : nla-gpu2.ianm.kit.edu
PID    : 2044170
I/O    : uncollated
Case   : /home/greole/data/code/ogl_labbook/motorcycle_resolution/resolution/Variation_mesh/Large/Variation_matrix_solver/CG_BJ_HIP/Variation_mpiRank/8/base
nProcs : 8
Hosts  :
(
    (nla-gpu2.ianm.kit.edu 8)
)
Pstream initialized with:
    floatTransfer      : 0
    nProcsSimpleSum    : 0
    commsType          : nonBlocking
    polling iterations : 0
trapFpe: Floating point exception trapping enabled (FOAM_SIGFPE).
fileModificationChecking : Monitoring run-time modified files using timeStampMaster (fileModificationSkew 5, maxFileModificationPolls 20)
allowSystemOperations : Allowing user-supplied system call operations

// * * * * * * * * * * * * * * * * * * * * * * * * * * * * * * * * * * * * * //
Create time

Create mesh for time = 0


SIMPLE: no convergence criteria found. Calculations will run for 3 steps.

Reading field p

Reading field U

Reading/calculating face flux field phi

Selecting incompressible transport model Newtonian
Selecting turbulence model type RAS
Selecting RAS turbulence model kOmegaSST
Selecting patchDistMethod meshWave
RAS
{
    RASModel        kOmegaSST;
    turbulence      on;
    printCoeffs     on;
    alphaK1         0.85;
    alphaK2         1;
    alphaOmega1     0.5;
    alphaOmega2     0.856;
    gamma1          0.555555555556;
    gamma2          0.44;
    beta1           0.075;
    beta2           0.0828;
    betaStar        0.09;
    a1              0.31;
    b1              1;
    c1              10;
    F3              false;
    decayControl    false;
    kInf            0;
    omegaInf        0;
}

No MRF models present

No finite volume options present

Starting time loop

Time = 1

DILUPBiCGStab:  Solving for Ux, Initial residual = 0.0298408184793, Final residual = 0.00218216071274, No Iterations 3
DILUPBiCGStab:  Solving for Uy, Initial residual = 0.416436009197, Final residual = 0.0316946277838, No Iterations 3
DILUPBiCGStab:  Solving for Uz, Initial residual = 0.262309070484, Final residual = 0.0117523460212, No Iterations 3
linear solve U 3302546
[OGL LOG][Proc: 0]global_index_init : 31692 mu s
[OGL LOG][Proc: 0]global_index_init : 4 mu s
[OGL LOG][Proc: 0]global_index_init : 4 mu s
[OGL LOG][Proc: 0]global_index_init : 4 mu s
[OGL LOG][Proc: 0]init_host_sparsity_pattern : 47841861 mu s
[OGL LOG][Proc: 0]update_host_matrix_data : 128007 mu s
[OGL LOG][Proc: 0]convert_coo_to_csr : 11846 mu s
[OGL LOG][Proc: 0]gather_global_matrix : 1 mu s
 block size 1
[OGL LOG][Proc: 0]init_precond : 48359 mu s
[OGL LOG][Proc: 0]generate_solver : 19 mu s
[OGL LOG][Proc: 0]solve : 3359431 mu s
[OGL LOG][Proc: 0]retrieve_result_from_device : 84234 mu s
BJhipGKOCG:  Solving for p, Initial residual = 1, Final residual = 0.00994635933936, No Iterations 311
linear solve p 62535451
time step continuity errors : sum local = 0.000813064304687, global = 1.74566960869e-05, cumulative = 1.74566960869e-05
DILUPBiCGStab:  Solving for omega, Initial residual = 0.00231432608401, Final residual = 5.56912234479e-05, No Iterations 1
linear solve omega 541247
bounding omega, min: -63946.3748575 max: 2809464.71271 average: 2480.53191328
DILUPBiCGStab:  Solving for k, Initial residual = 0.999999998376, Final residual = 0.0429181013086, No Iterations 1
linear solve k 485076
ExecutionTime = 128.59 s  ClockTime = 129 s

Time = 2

DILUPBiCGStab:  Solving for Ux, Initial residual = 0.0152130793103, Final residual = 0.00100535055216, No Iterations 3
DILUPBiCGStab:  Solving for Uy, Initial residual = 0.261554409166, Final residual = 0.0185837332341, No Iterations 3
DILUPBiCGStab:  Solving for Uz, Initial residual = 0.130091201876, Final residual = 0.00669531915082, No Iterations 3
linear solve U 2792677
[OGL LOG][Proc: 0]global_index_init : 1628 mu s
[OGL LOG][Proc: 0]global_index_init : 4 mu s
[OGL LOG][Proc: 0]global_index_init : 6 mu s
[OGL LOG][Proc: 0]global_index_init : 4 mu s
[OGL LOG][Proc: 0]update_host_matrix_data : 110173 mu s
[OGL LOG][Proc: 0]gather_global_matrix : 1 mu s
 block size 1
[OGL LOG][Proc: 0]init_precond : 19366 mu s
[OGL LOG][Proc: 0]generate_solver : 2 mu s
[OGL LOG][Proc: 0]solve : 3057043 mu s
[OGL LOG][Proc: 0]retrieve_result_from_device : 75901 mu s
BJhipGKOCG:  Solving for p, Initial residual = 0.0343599952087, Final residual = 0.00028601902292, No Iterations 301
linear solve p 6137486
time step continuity errors : sum local = 0.0940240499651, global = -5.10145942283e-05, cumulative = -3.35578981415e-05
DILUPBiCGStab:  Solving for omega, Initial residual = 0.00171809510624, Final residual = 4.50416810329e-05, No Iterations 1
linear solve omega 540344
bounding omega, min: -209.903727619 max: 2809559.188 average: 2821.57738125
DILUPBiCGStab:  Solving for k, Initial residual = 0.0309495341993, Final residual = 0.00117610610874, No Iterations 1
linear solve k 486232
ExecutionTime = 147.16 s  ClockTime = 147 s

Time = 3

DILUPBiCGStab:  Solving for Ux, Initial residual = 0.0756181725436, Final residual = 0.00157034822689, No Iterations 9
DILUPBiCGStab:  Solving for Uy, Initial residual = 0.501548377805, Final residual = 0.0408147226603, No Iterations 7
DILUPBiCGStab:  Solving for Uz, Initial residual = 0.460480055551, Final residual = 0.0340103316604, No Iterations 7
linear solve U 6912077
[OGL LOG][Proc: 0]global_index_init : 1505 mu s
[OGL LOG][Proc: 0]global_index_init : 3 mu s
[OGL LOG][Proc: 0]global_index_init : 6 mu s
[OGL LOG][Proc: 0]global_index_init : 21 mu s
[OGL LOG][Proc: 0]update_host_matrix_data : 112040 mu s
[OGL LOG][Proc: 0]gather_global_matrix : 1 mu s
 block size 1
[OGL LOG][Proc: 0]init_precond : 19344 mu s
[OGL LOG][Proc: 0]generate_solver : 1 mu s
[OGL LOG][Proc: 0]solve : 2449495 mu s
[OGL LOG][Proc: 0]retrieve_result_from_device : 78921 mu s
BJhipGKOCG:  Solving for p, Initial residual = 0.963870819454, Final residual = 0.00320671422661, No Iterations 241
linear solve p 5529902
time step continuity errors : sum local = 4011.7242217, global = -0.0138418361249, cumulative = -0.0138753940231
DILUPBiCGStab:  Solving for omega, Initial residual = 0.0989432022789, Final residual = 0.000387201812786, No Iterations 1
linear solve omega 394017
bounding omega, min: -859.808526363 max: 2809004.99325 average: 3323.27739211
DILUPBiCGStab:  Solving for k, Initial residual = 0.130175287714, Final residual = 0.000237749800522, No Iterations 1
linear solve k 484286
ExecutionTime = 169.12 s  ClockTime = 169 s

End

Finalising parallel run
================================================================================
hash: 8a98c9b55162be278ff21efc99ffc396
/*---------------------------------------------------------------------------*\
| =========                 |                                                 |
| \\      /  F ield         | OpenFOAM: The Open Source CFD Toolbox           |
|  \\    /   O peration     | Version:  v2106                                 |
|   \\  /    A nd           | Website:  www.openfoam.com                      |
|    \\/     M anipulation  |                                                 |
\*---------------------------------------------------------------------------*/
Build  : f815a12bba-20210902 OPENFOAM=2106
Arch   : "LSB;label=32;scalar=64"
Exec   : simpleFoam -parallel
Date   : Jan 20 2022
Time   : 21:14:39
Host   : nla-gpu2.ianm.kit.edu
PID    : 2045851
I/O    : uncollated
Case   : /home/greole/data/code/ogl_labbook/motorcycle_resolution/resolution/Variation_mesh/Large/Variation_matrix_solver/BiCGStab_BJ_HIP/Variation_mpiRank/32/base
nProcs : 32
Hosts  :
(
    (nla-gpu2.ianm.kit.edu 32)
)
Pstream initialized with:
    floatTransfer      : 0
    nProcsSimpleSum    : 0
    commsType          : nonBlocking
    polling iterations : 0
trapFpe: Floating point exception trapping enabled (FOAM_SIGFPE).
fileModificationChecking : Monitoring run-time modified files using timeStampMaster (fileModificationSkew 5, maxFileModificationPolls 20)
allowSystemOperations : Allowing user-supplied system call operations

// * * * * * * * * * * * * * * * * * * * * * * * * * * * * * * * * * * * * * //
Create time

Create mesh for time = 0


SIMPLE: no convergence criteria found. Calculations will run for 3 steps.

Reading field p

Reading field U

Reading/calculating face flux field phi

Selecting incompressible transport model Newtonian
Selecting turbulence model type RAS
Selecting RAS turbulence model kOmegaSST
Selecting patchDistMethod meshWave
RAS
{
    RASModel        kOmegaSST;
    turbulence      on;
    printCoeffs     on;
    alphaK1         0.85;
    alphaK2         1;
    alphaOmega1     0.5;
    alphaOmega2     0.856;
    gamma1          0.555555555556;
    gamma2          0.44;
    beta1           0.075;
    beta2           0.0828;
    betaStar        0.09;
    a1              0.31;
    b1              1;
    c1              10;
    F3              false;
    decayControl    false;
    kInf            0;
    omegaInf        0;
}

No MRF models present

No finite volume options present

Starting time loop

Time = 1

DILUPBiCGStab:  Solving for Ux, Initial residual = 0.0298408185319, Final residual = 0.0023442936585, No Iterations 3
DILUPBiCGStab:  Solving for Uy, Initial residual = 0.416436010106, Final residual = 0.0343159774748, No Iterations 3
DILUPBiCGStab:  Solving for Uz, Initial residual = 0.262309071038, Final residual = 0.0121250711235, No Iterations 3
linear solve U 1646439
[OGL LOG][Proc: 0]global_index_init : 9885 mu s
[OGL LOG][Proc: 0]global_index_init : 12 mu s
[OGL LOG][Proc: 0]global_index_init : 9 mu s
[OGL LOG][Proc: 0]global_index_init : 8 mu s
[OGL LOG][Proc: 0]init_host_sparsity_pattern : 5982496 mu s
[OGL LOG][Proc: 0]update_host_matrix_data : 45678 mu s
[OGL LOG][Proc: 0]convert_coo_to_csr : 12261 mu s
[OGL LOG][Proc: 0]gather_global_matrix : 0 mu s
 block size 1
[OGL LOG][Proc: 0]init_precond : 309812 mu s
[OGL LOG][Proc: 0]generate_solver : 21 mu s
[OGL LOG][Proc: 0]solve : 10379458 mu s
[OGL LOG][Proc: 0]retrieve_result_from_device : 84941 mu s
BJhipGKOBiCGStab:  Solving for p, Initial residual = 1, Final residual = 0.0099973073443, No Iterations 107
linear solve p 34371122
time step continuity errors : sum local = 0.000822313793839, global = 5.32563703927e-05, cumulative = 5.32563703927e-05
DILUPBiCGStab:  Solving for omega, Initial residual = 0.00231540977624, Final residual = 5.70505057714e-05, No Iterations 1
linear solve omega 278722
bounding omega, min: -63806.4920183 max: 2809464.71271 average: 2479.37752771
DILUPBiCGStab:  Solving for k, Initial residual = 0.999999999289, Final residual = 0.0479607433876, No Iterations 1
linear solve k 269518
ExecutionTime = 57.28 s  ClockTime = 57 s

Time = 2

DILUPBiCGStab:  Solving for Ux, Initial residual = 0.0151683702138, Final residual = 0.00106550265374, No Iterations 3
DILUPBiCGStab:  Solving for Uy, Initial residual = 0.262598108173, Final residual = 0.0180986380307, No Iterations 3
DILUPBiCGStab:  Solving for Uz, Initial residual = 0.125769571585, Final residual = 0.00689066353671, No Iterations 3
linear solve U 1398878
[OGL LOG][Proc: 0]global_index_init : 1407 mu s
[OGL LOG][Proc: 0]global_index_init : 5 mu s
[OGL LOG][Proc: 0]global_index_init : 11 mu s
[OGL LOG][Proc: 0]global_index_init : 8 mu s
[OGL LOG][Proc: 0]update_host_matrix_data : 76059 mu s
[OGL LOG][Proc: 0]gather_global_matrix : 0 mu s
 block size 1
[OGL LOG][Proc: 0]init_precond : 19703 mu s
[OGL LOG][Proc: 0]generate_solver : 2 mu s
[OGL LOG][Proc: 0]solve : 10502125 mu s
[OGL LOG][Proc: 0]retrieve_result_from_device : 85318 mu s
BJhipGKOBiCGStab:  Solving for p, Initial residual = 0.0372226206798, Final residual = 0.000321163250387, No Iterations 102
linear solve p 12105362
time step continuity errors : sum local = 0.104533953607, global = 0.000171117200447, cumulative = 0.00022437357084
DILUPBiCGStab:  Solving for omega, Initial residual = 0.00180235461132, Final residual = 4.60409577437e-05, No Iterations 1
linear solve omega 279647
bounding omega, min: -219.24083119 max: 2809571.91483 average: 2822.98819885
DILUPBiCGStab:  Solving for k, Initial residual = 0.0314610817076, Final residual = 0.00133683112691, No Iterations 1
linear solve k 250478
ExecutionTime = 75.58 s  ClockTime = 75 s

Time = 3

DILUPBiCGStab:  Solving for Ux, Initial residual = 0.0818969667462, Final residual = 0.00802225195476, No Iterations 7
DILUPBiCGStab:  Solving for Uy, Initial residual = 0.502885443581, Final residual = 0.0499223091049, No Iterations 7
DILUPBiCGStab:  Solving for Uz, Initial residual = 0.470815125779, Final residual = 0.0268807561627, No Iterations 8
linear solve U 3295023
[OGL LOG][Proc: 0]global_index_init : 1444 mu s
[OGL LOG][Proc: 0]global_index_init : 9 mu s
[OGL LOG][Proc: 0]global_index_init : 7 mu s
[OGL LOG][Proc: 0]global_index_init : 10 mu s
[OGL LOG][Proc: 0]update_host_matrix_data : 76258 mu s
[OGL LOG][Proc: 0]gather_global_matrix : 0 mu s
 block size 1
[OGL LOG][Proc: 0]init_precond : 19720 mu s
[OGL LOG][Proc: 0]generate_solver : 2 mu s
[OGL LOG][Proc: 0]solve : 6130311 mu s
[OGL LOG][Proc: 0]retrieve_result_from_device : 335942 mu s
BJhipGKOBiCGStab:  Solving for p, Initial residual = 0.960919711562, Final residual = 0.0087250124945, No Iterations 54
linear solve p 8083070
time step continuity errors : sum local = 4316.18624759, global = 0.00022771760117, cumulative = 0.00045209117201
DILUPBiCGStab:  Solving for omega, Initial residual = 0.0866022829533, Final residual = 0.00036664711468, No Iterations 1
linear solve omega 213305
DILUPBiCGStab:  Solving for k, Initial residual = 0.135817913978, Final residual = 0.000306255521887, No Iterations 1
linear solve k 244670
ExecutionTime = 91.56 s  ClockTime = 91 s

End

Finalising parallel run
================================================================================
hash: 423491afcea443587dc75528b5a319fe
/*---------------------------------------------------------------------------*\
| =========                 |                                                 |
| \\      /  F ield         | OpenFOAM: The Open Source CFD Toolbox           |
|  \\    /   O peration     | Version:  v2106                                 |
|   \\  /    A nd           | Website:  www.openfoam.com                      |
|    \\/     M anipulation  |                                                 |
\*---------------------------------------------------------------------------*/
Build  : f815a12bba-20210902 OPENFOAM=2106
Arch   : "LSB;label=32;scalar=64"
Exec   : simpleFoam -parallel
Date   : Jan 20 2022
Time   : 21:16:11
Host   : nla-gpu2.ianm.kit.edu
PID    : 2046845
I/O    : uncollated
Case   : /home/greole/data/code/ogl_labbook/motorcycle_resolution/resolution/Variation_mesh/Large/Variation_matrix_solver/BiCGStab_BJ_HIP/Variation_mpiRank/8/base
nProcs : 8
Hosts  :
(
    (nla-gpu2.ianm.kit.edu 8)
)
Pstream initialized with:
    floatTransfer      : 0
    nProcsSimpleSum    : 0
    commsType          : nonBlocking
    polling iterations : 0
trapFpe: Floating point exception trapping enabled (FOAM_SIGFPE).
fileModificationChecking : Monitoring run-time modified files using timeStampMaster (fileModificationSkew 5, maxFileModificationPolls 20)
allowSystemOperations : Allowing user-supplied system call operations

// * * * * * * * * * * * * * * * * * * * * * * * * * * * * * * * * * * * * * //
Create time

Create mesh for time = 0


SIMPLE: no convergence criteria found. Calculations will run for 3 steps.

Reading field p

Reading field U

Reading/calculating face flux field phi

Selecting incompressible transport model Newtonian
Selecting turbulence model type RAS
Selecting RAS turbulence model kOmegaSST
Selecting patchDistMethod meshWave
RAS
{
    RASModel        kOmegaSST;
    turbulence      on;
    printCoeffs     on;
    alphaK1         0.85;
    alphaK2         1;
    alphaOmega1     0.5;
    alphaOmega2     0.856;
    gamma1          0.555555555556;
    gamma2          0.44;
    beta1           0.075;
    beta2           0.0828;
    betaStar        0.09;
    a1              0.31;
    b1              1;
    c1              10;
    F3              false;
    decayControl    false;
    kInf            0;
    omegaInf        0;
}

No MRF models present

No finite volume options present

Starting time loop

Time = 1

DILUPBiCGStab:  Solving for Ux, Initial residual = 0.0298408184793, Final residual = 0.00218216071274, No Iterations 3
DILUPBiCGStab:  Solving for Uy, Initial residual = 0.416436009197, Final residual = 0.0316946277838, No Iterations 3
DILUPBiCGStab:  Solving for Uz, Initial residual = 0.262309070484, Final residual = 0.0117523460212, No Iterations 3
linear solve U 3302201
[OGL LOG][Proc: 0]global_index_init : 29393 mu s
[OGL LOG][Proc: 0]global_index_init : 4 mu s
[OGL LOG][Proc: 0]global_index_init : 4 mu s
[OGL LOG][Proc: 0]global_index_init : 3 mu s
[OGL LOG][Proc: 0]init_host_sparsity_pattern : 47894269 mu s
[OGL LOG][Proc: 0]update_host_matrix_data : 128266 mu s
[OGL LOG][Proc: 0]convert_coo_to_csr : 12172 mu s
[OGL LOG][Proc: 0]gather_global_matrix : 0 mu s
 block size 1
[OGL LOG][Proc: 0]init_precond : 47672 mu s
[OGL LOG][Proc: 0]generate_solver : 14 mu s
[OGL LOG][Proc: 0]solve : 2174949 mu s
[OGL LOG][Proc: 0]retrieve_result_from_device : 80716 mu s
BJhipGKOBiCGStab:  Solving for p, Initial residual = 1, Final residual = 0.00893831919247, No Iterations 107
linear solve p 61434208
time step continuity errors : sum local = 0.000730662147962, global = 4.58548525772e-05, cumulative = 4.58548525772e-05
DILUPBiCGStab:  Solving for omega, Initial residual = 0.00231443361585, Final residual = 5.57255634476e-05, No Iterations 1
linear solve omega 542118
bounding omega, min: -64043.319635 max: 2809464.71271 average: 2479.97229909
DILUPBiCGStab:  Solving for k, Initial residual = 0.999999998383, Final residual = 0.0429213031552, No Iterations 1
linear solve k 481829
ExecutionTime = 127.76 s  ClockTime = 128 s

Time = 2

DILUPBiCGStab:  Solving for Ux, Initial residual = 0.0151522307215, Final residual = 0.000998311118059, No Iterations 3
DILUPBiCGStab:  Solving for Uy, Initial residual = 0.261497648152, Final residual = 0.0196032398637, No Iterations 3
DILUPBiCGStab:  Solving for Uz, Initial residual = 0.126359935428, Final residual = 0.00650419488874, No Iterations 3
linear solve U 2796331
[OGL LOG][Proc: 0]global_index_init : 1502 mu s
[OGL LOG][Proc: 0]global_index_init : 4 mu s
[OGL LOG][Proc: 0]global_index_init : 4 mu s
[OGL LOG][Proc: 0]global_index_init : 4 mu s
[OGL LOG][Proc: 0]update_host_matrix_data : 112087 mu s
[OGL LOG][Proc: 0]gather_global_matrix : 1 mu s
 block size 1
[OGL LOG][Proc: 0]init_precond : 20087 mu s
[OGL LOG][Proc: 0]generate_solver : 1 mu s
[OGL LOG][Proc: 0]solve : 1954263 mu s
[OGL LOG][Proc: 0]retrieve_result_from_device : 78319 mu s
BJhipGKOBiCGStab:  Solving for p, Initial residual = 0.036549936867, Final residual = 0.000345510208978, No Iterations 102
linear solve p 5032937
time step continuity errors : sum local = 0.0945962278905, global = 0.0001998592417, cumulative = 0.000245714094277
DILUPBiCGStab:  Solving for omega, Initial residual = 0.00173348296444, Final residual = 4.52614871038e-05, No Iterations 1
linear solve omega 538555
bounding omega, min: -197.071886444 max: 2809560.60232 average: 2821.38442758
DILUPBiCGStab:  Solving for k, Initial residual = 0.0309347603086, Final residual = 0.00117322563206, No Iterations 1
linear solve k 485327
ExecutionTime = 145.21 s  ClockTime = 145 s

Time = 3

DILUPBiCGStab:  Solving for Ux, Initial residual = 0.0811510763359, Final residual = 0.00338123006513, No Iterations 8
DILUPBiCGStab:  Solving for Uy, Initial residual = 0.498758745011, Final residual = 0.0378581392088, No Iterations 7
DILUPBiCGStab:  Solving for Uz, Initial residual = 0.45697124786, Final residual = 0.033971165007, No Iterations 7
linear solve U 6773693
[OGL LOG][Proc: 0]global_index_init : 1239 mu s
[OGL LOG][Proc: 0]global_index_init : 3 mu s
[OGL LOG][Proc: 0]global_index_init : 6 mu s
[OGL LOG][Proc: 0]global_index_init : 4 mu s
[OGL LOG][Proc: 0]update_host_matrix_data : 111278 mu s
[OGL LOG][Proc: 0]gather_global_matrix : 2 mu s
 block size 1
[OGL LOG][Proc: 0]init_precond : 19451 mu s
[OGL LOG][Proc: 0]generate_solver : 1 mu s
[OGL LOG][Proc: 0]solve : 1002872 mu s
[OGL LOG][Proc: 0]retrieve_result_from_device : 73143 mu s
BJhipGKOBiCGStab:  Solving for p, Initial residual = 0.960904413147, Final residual = 0.00932429263295, No Iterations 52
linear solve p 4071438
time step continuity errors : sum local = 4048.90081603, global = 0.000242674257145, cumulative = 0.000488388351423
DILUPBiCGStab:  Solving for omega, Initial residual = 0.0987332150438, Final residual = 0.000413960296565, No Iterations 1
linear solve omega 391900
bounding omega, min: -886.892241175 max: 2809000.42306 average: 3320.17080229
DILUPBiCGStab:  Solving for k, Initial residual = 0.129964612703, Final residual = 0.000241403232092, No Iterations 1
linear solve k 485471
ExecutionTime = 165.52 s  ClockTime = 165 s

End

Finalising parallel run
================================================================================
hash: 1b84db39b1bdf90ba4db5bcb70a61152
/*---------------------------------------------------------------------------*\
| =========                 |                                                 |
| \\      /  F ield         | OpenFOAM: The Open Source CFD Toolbox           |
|  \\    /   O peration     | Version:  v2106                                 |
|   \\  /    A nd           | Website:  www.openfoam.com                      |
|    \\/     M anipulation  |                                                 |
\*---------------------------------------------------------------------------*/
Build  : f815a12bba-20210902 OPENFOAM=2106
Arch   : "LSB;label=32;scalar=64"
Exec   : simpleFoam -parallel
Date   : Jan 20 2022
Time   : 21:18:58
Host   : nla-gpu2.ianm.kit.edu
PID    : 2048507
I/O    : uncollated
Case   : /home/greole/data/code/ogl_labbook/motorcycle_resolution/resolution/Variation_mesh/Large/Variation_matrix_solver/BiCGStab_Multigrid_HIP/Variation_mpiRank/32/base
nProcs : 32
Hosts  :
(
    (nla-gpu2.ianm.kit.edu 32)
)
Pstream initialized with:
    floatTransfer      : 0
    nProcsSimpleSum    : 0
    commsType          : nonBlocking
    polling iterations : 0
trapFpe: Floating point exception trapping enabled (FOAM_SIGFPE).
fileModificationChecking : Monitoring run-time modified files using timeStampMaster (fileModificationSkew 5, maxFileModificationPolls 20)
allowSystemOperations : Allowing user-supplied system call operations

// * * * * * * * * * * * * * * * * * * * * * * * * * * * * * * * * * * * * * //
Create time

Create mesh for time = 0


SIMPLE: no convergence criteria found. Calculations will run for 3 steps.

Reading field p

Reading field U

Reading/calculating face flux field phi

Selecting incompressible transport model Newtonian
Selecting turbulence model type RAS
Selecting RAS turbulence model kOmegaSST
Selecting patchDistMethod meshWave
RAS
{
    RASModel        kOmegaSST;
    turbulence      on;
    printCoeffs     on;
    alphaK1         0.85;
    alphaK2         1;
    alphaOmega1     0.5;
    alphaOmega2     0.856;
    gamma1          0.555555555556;
    gamma2          0.44;
    beta1           0.075;
    beta2           0.0828;
    betaStar        0.09;
    a1              0.31;
    b1              1;
    c1              10;
    F3              false;
    decayControl    false;
    kInf            0;
    omegaInf        0;
}

No MRF models present

No finite volume options present

Starting time loop

Time = 1

DILUPBiCGStab:  Solving for Ux, Initial residual = 0.0298408185319, Final residual = 0.0023442936585, No Iterations 3
DILUPBiCGStab:  Solving for Uy, Initial residual = 0.416436010106, Final residual = 0.0343159774748, No Iterations 3
DILUPBiCGStab:  Solving for Uz, Initial residual = 0.262309071038, Final residual = 0.0121250711235, No Iterations 3
linear solve U 1633543
[OGL LOG][Proc: 0]global_index_init : 80520 mu s
[OGL LOG][Proc: 0]global_index_init : 10 mu s
[OGL LOG][Proc: 0]global_index_init : 6 mu s
[OGL LOG][Proc: 0]global_index_init : 8 mu s
[OGL LOG][Proc: 0]init_host_sparsity_pattern : 5980197 mu s
[OGL LOG][Proc: 0]update_host_matrix_data : 45934 mu s
[OGL LOG][Proc: 0]convert_coo_to_csr : 12094 mu s
[OGL LOG][Proc: 0]gather_global_matrix : 1 mu s
[OGL LOG][Proc: 0]init_precond : 17785830 mu s
[OGL LOG][Proc: 0]generate_solver : 10 mu s
[OGL LOG][Proc: 0]solve : 10715196 mu s
[OGL LOG][Proc: 0]retrieve_result_from_device : 641039 mu s
MultigridhipGKOBiCGStab:  Solving for p, Initial residual = 1, Final residual = 0.00899975511695, No Iterations 7
linear solve p 52836045
time step continuity errors : sum local = 0.000740261604347, global = 5.40801308359e-05, cumulative = 5.40801308359e-05
DILUPBiCGStab:  Solving for omega, Initial residual = 0.00231522198338, Final residual = 5.70295417111e-05, No Iterations 1
linear solve omega 279913
bounding omega, min: -63895.6929813 max: 2809464.71271 average: 2479.735604
DILUPBiCGStab:  Solving for k, Initial residual = 0.999999999287, Final residual = 0.0479601254558, No Iterations 1
linear solve k 257004
ExecutionTime = 75.67 s  ClockTime = 76 s

Time = 2

DILUPBiCGStab:  Solving for Ux, Initial residual = 0.0151725409946, Final residual = 0.00106567207068, No Iterations 3
DILUPBiCGStab:  Solving for Uy, Initial residual = 0.262542749848, Final residual = 0.0181563717033, No Iterations 3
DILUPBiCGStab:  Solving for Uz, Initial residual = 0.126509933642, Final residual = 0.00692798267321, No Iterations 3
linear solve U 1389953
[OGL LOG][Proc: 0]global_index_init : 1380 mu s
[OGL LOG][Proc: 0]global_index_init : 6 mu s
[OGL LOG][Proc: 0]global_index_init : 11 mu s
[OGL LOG][Proc: 0]global_index_init : 7 mu s
[OGL LOG][Proc: 0]update_host_matrix_data : 78818 mu s
[OGL LOG][Proc: 0]gather_global_matrix : 0 mu s
[OGL LOG][Proc: 0]init_precond : 16017598 mu s
[OGL LOG][Proc: 0]generate_solver : 1 mu s
[OGL LOG][Proc: 0]solve : 10831994 mu s
[OGL LOG][Proc: 0]retrieve_result_from_device : 200777 mu s
MultigridhipGKOBiCGStab:  Solving for p, Initial residual = 0.0362127391841, Final residual = 0.000328811981478, No Iterations 7
linear solve p 28397982
time step continuity errors : sum local = 0.103984119954, global = 0.000163602018856, cumulative = 0.000217682149692
DILUPBiCGStab:  Solving for omega, Initial residual = 0.00178645379966, Final residual = 4.58594796986e-05, No Iterations 1
linear solve omega 272174
bounding omega, min: -219.024004997 max: 2809571.26451 average: 2823.03880061
DILUPBiCGStab:  Solving for k, Initial residual = 0.0314732458446, Final residual = 0.00133860762998, No Iterations 1
linear solve k 259493
ExecutionTime = 110.33 s  ClockTime = 110 s

Time = 3

DILUPBiCGStab:  Solving for Ux, Initial residual = 0.0799827348238, Final residual = 0.00709675347854, No Iterations 7
DILUPBiCGStab:  Solving for Uy, Initial residual = 0.49971923006, Final residual = 0.0347032729478, No Iterations 8
DILUPBiCGStab:  Solving for Uz, Initial residual = 0.470292548747, Final residual = 0.0373242888055, No Iterations 7
linear solve U 3223126
[OGL LOG][Proc: 0]global_index_init : 1232 mu s
[OGL LOG][Proc: 0]global_index_init : 5 mu s
[OGL LOG][Proc: 0]global_index_init : 7 mu s
[OGL LOG][Proc: 0]global_index_init : 13 mu s
[OGL LOG][Proc: 0]update_host_matrix_data : 72404 mu s
[OGL LOG][Proc: 0]gather_global_matrix : 0 mu s
[OGL LOG][Proc: 0]init_precond : 15965305 mu s
[OGL LOG][Proc: 0]generate_solver : 1 mu s
[OGL LOG][Proc: 0]solve : 6343774 mu s
[OGL LOG][Proc: 0]retrieve_result_from_device : 368148 mu s
MultigridhipGKOBiCGStab:  Solving for p, Initial residual = 0.960368500709, Final residual = 0.00690089320539, No Iterations 4
linear solve p 24587780
time step continuity errors : sum local = 4276.47157628, global = 0.000112717192083, cumulative = 0.000330399341775
DILUPBiCGStab:  Solving for omega, Initial residual = 0.0849418740242, Final residual = 0.000396573836892, No Iterations 1
linear solve omega 220104
DILUPBiCGStab:  Solving for k, Initial residual = 0.134246324202, Final residual = 0.000300677436324, No Iterations 1
linear solve k 248534
ExecutionTime = 142.8 s  ClockTime = 143 s

End

Finalising parallel run
================================================================================
hash: 44ac5000d8a48e82a20a48043c27272c
/*---------------------------------------------------------------------------*\
| =========                 |                                                 |
| \\      /  F ield         | OpenFOAM: The Open Source CFD Toolbox           |
|  \\    /   O peration     | Version:  v2106                                 |
|   \\  /    A nd           | Website:  www.openfoam.com                      |
|    \\/     M anipulation  |                                                 |
\*---------------------------------------------------------------------------*/
Build  : f815a12bba-20210902 OPENFOAM=2106
Arch   : "LSB;label=32;scalar=64"
Exec   : simpleFoam -parallel
Date   : Jan 20 2022
Time   : 21:21:22
Host   : nla-gpu2.ianm.kit.edu
PID    : 2050016
I/O    : uncollated
Case   : /home/greole/data/code/ogl_labbook/motorcycle_resolution/resolution/Variation_mesh/Large/Variation_matrix_solver/BiCGStab_Multigrid_HIP/Variation_mpiRank/8/base
nProcs : 8
Hosts  :
(
    (nla-gpu2.ianm.kit.edu 8)
)
Pstream initialized with:
    floatTransfer      : 0
    nProcsSimpleSum    : 0
    commsType          : nonBlocking
    polling iterations : 0
trapFpe: Floating point exception trapping enabled (FOAM_SIGFPE).
fileModificationChecking : Monitoring run-time modified files using timeStampMaster (fileModificationSkew 5, maxFileModificationPolls 20)
allowSystemOperations : Allowing user-supplied system call operations

// * * * * * * * * * * * * * * * * * * * * * * * * * * * * * * * * * * * * * //
Create time

Create mesh for time = 0


SIMPLE: no convergence criteria found. Calculations will run for 3 steps.

Reading field p

Reading field U

Reading/calculating face flux field phi

Selecting incompressible transport model Newtonian
Selecting turbulence model type RAS
Selecting RAS turbulence model kOmegaSST
Selecting patchDistMethod meshWave
RAS
{
    RASModel        kOmegaSST;
    turbulence      on;
    printCoeffs     on;
    alphaK1         0.85;
    alphaK2         1;
    alphaOmega1     0.5;
    alphaOmega2     0.856;
    gamma1          0.555555555556;
    gamma2          0.44;
    beta1           0.075;
    beta2           0.0828;
    betaStar        0.09;
    a1              0.31;
    b1              1;
    c1              10;
    F3              false;
    decayControl    false;
    kInf            0;
    omegaInf        0;
}

No MRF models present

No finite volume options present

Starting time loop

Time = 1

DILUPBiCGStab:  Solving for Ux, Initial residual = 0.0298408184793, Final residual = 0.00218216071274, No Iterations 3
DILUPBiCGStab:  Solving for Uy, Initial residual = 0.416436009197, Final residual = 0.0316946277838, No Iterations 3
DILUPBiCGStab:  Solving for Uz, Initial residual = 0.262309070484, Final residual = 0.0117523460212, No Iterations 3
linear solve U 3298774
[OGL LOG][Proc: 0]global_index_init : 28155 mu s
[OGL LOG][Proc: 0]global_index_init : 4 mu s
[OGL LOG][Proc: 0]global_index_init : 4 mu s
[OGL LOG][Proc: 0]global_index_init : 4 mu s
[OGL LOG][Proc: 0]init_host_sparsity_pattern : 48186342 mu s
[OGL LOG][Proc: 0]update_host_matrix_data : 128187 mu s
[OGL LOG][Proc: 0]convert_coo_to_csr : 12101 mu s
[OGL LOG][Proc: 0]gather_global_matrix : 1 mu s
[OGL LOG][Proc: 0]init_precond : 2963173 mu s
[OGL LOG][Proc: 0]generate_solver : 9 mu s
[OGL LOG][Proc: 0]solve : 2080309 mu s
[OGL LOG][Proc: 0]retrieve_result_from_device : 82447 mu s
MultigridhipGKOBiCGStab:  Solving for p, Initial residual = 1, Final residual = 0.00898958089397, No Iterations 7
linear solve p 64742110
time step continuity errors : sum local = 0.000734852531424, global = 5.72060561285e-05, cumulative = 5.72060561285e-05
DILUPBiCGStab:  Solving for omega, Initial residual = 0.00231436663713, Final residual = 5.57055664632e-05, No Iterations 1
linear solve omega 542289
bounding omega, min: -63987.5649128 max: 2809464.71271 average: 2480.05154794
DILUPBiCGStab:  Solving for k, Initial residual = 0.999999998388, Final residual = 0.0429242163843, No Iterations 1
linear solve k 487142
ExecutionTime = 130.92 s  ClockTime = 130 s

Time = 2

DILUPBiCGStab:  Solving for Ux, Initial residual = 0.015170991645, Final residual = 0.000998762340181, No Iterations 3
DILUPBiCGStab:  Solving for Uy, Initial residual = 0.261768711581, Final residual = 0.0194199413051, No Iterations 3
DILUPBiCGStab:  Solving for Uz, Initial residual = 0.126856619998, Final residual = 0.00651820877702, No Iterations 3
linear solve U 2779076
[OGL LOG][Proc: 0]global_index_init : 1691 mu s
[OGL LOG][Proc: 0]global_index_init : 3 mu s
[OGL LOG][Proc: 0]global_index_init : 6 mu s
[OGL LOG][Proc: 0]global_index_init : 4 mu s
[OGL LOG][Proc: 0]update_host_matrix_data : 110994 mu s
[OGL LOG][Proc: 0]gather_global_matrix : 1 mu s
[OGL LOG][Proc: 0]init_precond : 2904716 mu s
[OGL LOG][Proc: 0]generate_solver : 1 mu s
[OGL LOG][Proc: 0]solve : 1904904 mu s
[OGL LOG][Proc: 0]retrieve_result_from_device : 81945 mu s
MultigridhipGKOBiCGStab:  Solving for p, Initial residual = 0.0358229112334, Final residual = 0.000355771819751, No Iterations 7
linear solve p 7880795
time step continuity errors : sum local = 0.0946376448567, global = 0.000188375564398, cumulative = 0.000245581620526
DILUPBiCGStab:  Solving for omega, Initial residual = 0.00172319395564, Final residual = 4.53508246133e-05, No Iterations 1
linear solve omega 540231
bounding omega, min: -207.371573396 max: 2809557.84932 average: 2821.17181159
DILUPBiCGStab:  Solving for k, Initial residual = 0.0309421103099, Final residual = 0.00117508516611, No Iterations 1
linear solve k 487237
ExecutionTime = 151.26 s  ClockTime = 151 s

Time = 3

DILUPBiCGStab:  Solving for Ux, Initial residual = 0.0787281487382, Final residual = 0.00360653977809, No Iterations 8
DILUPBiCGStab:  Solving for Uy, Initial residual = 0.498796394897, Final residual = 0.0351365255317, No Iterations 8
DILUPBiCGStab:  Solving for Uz, Initial residual = 0.457000469619, Final residual = 0.0351685890631, No Iterations 7
linear solve U 6900345
[OGL LOG][Proc: 0]global_index_init : 1719 mu s
[OGL LOG][Proc: 0]global_index_init : 3 mu s
[OGL LOG][Proc: 0]global_index_init : 5 mu s
[OGL LOG][Proc: 0]global_index_init : 5 mu s
[OGL LOG][Proc: 0]update_host_matrix_data : 110922 mu s
[OGL LOG][Proc: 0]gather_global_matrix : 1 mu s
[OGL LOG][Proc: 0]init_precond : 2900440 mu s
[OGL LOG][Proc: 0]generate_solver : 1 mu s
[OGL LOG][Proc: 0]solve : 1185775 mu s
[OGL LOG][Proc: 0]retrieve_result_from_device : 80968 mu s
MultigridhipGKOBiCGStab:  Solving for p, Initial residual = 0.960982210659, Final residual = 0.00740191594208, No Iterations 4
linear solve p 7154027
time step continuity errors : sum local = 3996.94439317, global = 0.000107439571156, cumulative = 0.000353021191682
DILUPBiCGStab:  Solving for omega, Initial residual = 0.098429073271, Final residual = 0.000417914786824, No Iterations 1
linear solve omega 400664
bounding omega, min: -886.663260571 max: 2809017.83356 average: 3313.59763409
DILUPBiCGStab:  Solving for k, Initial residual = 0.13065092171, Final residual = 0.000248464419744, No Iterations 1
linear solve k 488611
ExecutionTime = 174.85 s  ClockTime = 174 s

End

Finalising parallel run
================================================================================
hash: 1c5d8a9ca0f53b8aa5a3d10b15155cd4
/*---------------------------------------------------------------------------*\
| =========                 |                                                 |
| \\      /  F ield         | OpenFOAM: The Open Source CFD Toolbox           |
|  \\    /   O peration     | Version:  v2106                                 |
|   \\  /    A nd           | Website:  www.openfoam.com                      |
|    \\/     M anipulation  |                                                 |
\*---------------------------------------------------------------------------*/
Build  : f815a12bba-20210902 OPENFOAM=2106
Arch   : "LSB;label=32;scalar=64"
Exec   : simpleFoam -parallel
Date   : Jan 20 2022
Time   : 21:24:18
Host   : nla-gpu2.ianm.kit.edu
PID    : 2051667
I/O    : uncollated
Case   : /home/greole/data/code/ogl_labbook/motorcycle_resolution/resolution/Variation_mesh/Large/Variation_matrix_solver/CG_ILU_HIP/Variation_mpiRank/32/base
nProcs : 32
Hosts  :
(
    (nla-gpu2.ianm.kit.edu 32)
)
Pstream initialized with:
    floatTransfer      : 0
    nProcsSimpleSum    : 0
    commsType          : nonBlocking
    polling iterations : 0
trapFpe: Floating point exception trapping enabled (FOAM_SIGFPE).
fileModificationChecking : Monitoring run-time modified files using timeStampMaster (fileModificationSkew 5, maxFileModificationPolls 20)
allowSystemOperations : Allowing user-supplied system call operations

// * * * * * * * * * * * * * * * * * * * * * * * * * * * * * * * * * * * * * //
Create time

Create mesh for time = 0


SIMPLE: no convergence criteria found. Calculations will run for 3 steps.

Reading field p

Reading field U

Reading/calculating face flux field phi

Selecting incompressible transport model Newtonian
Selecting turbulence model type RAS
Selecting RAS turbulence model kOmegaSST
Selecting patchDistMethod meshWave
RAS
{
    RASModel        kOmegaSST;
    turbulence      on;
    printCoeffs     on;
    alphaK1         0.85;
    alphaK2         1;
    alphaOmega1     0.5;
    alphaOmega2     0.856;
    gamma1          0.555555555556;
    gamma2          0.44;
    beta1           0.075;
    beta2           0.0828;
    betaStar        0.09;
    a1              0.31;
    b1              1;
    c1              10;
    F3              false;
    decayControl    false;
    kInf            0;
    omegaInf        0;
}

No MRF models present

No finite volume options present

Starting time loop

Time = 1

DILUPBiCGStab:  Solving for Ux, Initial residual = 0.0298408185319, Final residual = 0.0023442936585, No Iterations 3
DILUPBiCGStab:  Solving for Uy, Initial residual = 0.416436010106, Final residual = 0.0343159774748, No Iterations 3
DILUPBiCGStab:  Solving for Uz, Initial residual = 0.262309071038, Final residual = 0.0121250711235, No Iterations 3
linear solve U 1620916
[OGL LOG][Proc: 0]global_index_init : 70208 mu s
[OGL LOG][Proc: 0]global_index_init : 20 mu s
[OGL LOG][Proc: 0]global_index_init : 8 mu s
[OGL LOG][Proc: 0]global_index_init : 8 mu s
[OGL LOG][Proc: 0]init_host_sparsity_pattern : 5983944 mu s
[OGL LOG][Proc: 0]update_host_matrix_data : 45042 mu s
[OGL LOG][Proc: 0]convert_coo_to_csr : 946814 mu s
[OGL LOG][Proc: 0]gather_global_matrix : 1 mu s
[OGL LOG][Proc: 0]init_precond : 11296950 mu s
[OGL LOG][Proc: 0]generate_solver : 11 mu s
[OGL LOG][Proc: 0]solve : 69372350 mu s
[OGL LOG][Proc: 0]retrieve_result_from_device : 204472 mu s
ILUhipGKOCG:  Solving for p, Initial residual = 1, Final residual = 1, No Iterations 1001
linear solve p 106610705
time step continuity errors : sum local = 0.0822535274269, global = 4.56226269515e-06, cumulative = 4.56226269515e-06
DILUPBiCGStab:  Solving for omega, Initial residual = 0.00355003730912, Final residual = 0.000165262405133, No Iterations 1
linear solve omega 297296
bounding omega, min: -60868.0348677 max: 2809464.71271 average: 2740.57639919
DILUPBiCGStab:  Solving for k, Initial residual = 0.999999999359, Final residual = 0.0487581352803, No Iterations 1
linear solve k 257556
ExecutionTime = 128.19 s  ClockTime = 129 s

Time = 2

DILUPBiCGStab:  Solving for Ux, Initial residual = 0.0165791128607, Final residual = 0.000999169821134, No Iterations 4
DILUPBiCGStab:  Solving for Uy, Initial residual = 0.273477647651, Final residual = 0.0199566890983, No Iterations 4
DILUPBiCGStab:  Solving for Uz, Initial residual = 0.0972999312391, Final residual = 0.00621838070316, No Iterations 4
linear solve U 1943309
[OGL LOG][Proc: 0]global_index_init : 1300 mu s
[OGL LOG][Proc: 0]global_index_init : 8 mu s
[OGL LOG][Proc: 0]global_index_init : 10 mu s
[OGL LOG][Proc: 0]global_index_init : 8 mu s
[OGL LOG][Proc: 0]update_host_matrix_data : 77461 mu s
[OGL LOG][Proc: 0]gather_global_matrix : 0 mu s
[OGL LOG][Proc: 0]init_precond : 12782622 mu s
[OGL LOG][Proc: 0]generate_solver : 2 mu s
[OGL LOG][Proc: 0]solve : 65798499 mu s
[OGL LOG][Proc: 0]retrieve_result_from_device : 105899 mu s
ILUhipGKOCG:  Solving for p, Initial residual = 1, Final residual = 1, No Iterations 1001
linear solve p 80392642
time step continuity errors : sum local = 0.156750831929, global = 5.94657640367e-05, cumulative = 6.40280267318e-05
DILUPBiCGStab:  Solving for omega, Initial residual = 0.00211439674914, Final residual = 8.9607367946e-05, No Iterations 1
linear solve omega 284761
bounding omega, min: -1339.61762824 max: 2809212.76331 average: 3086.90501288
DILUPBiCGStab:  Solving for k, Initial residual = 0.0423302885324, Final residual = 0.00213815799608, No Iterations 1
linear solve k 251321
ExecutionTime = 214.34 s  ClockTime = 216 s

Time = 3

DILUPBiCGStab:  Solving for Ux, Initial residual = 0.110664163441, Final residual = 0.00638493657507, No Iterations 2
DILUPBiCGStab:  Solving for Uy, Initial residual = 0.378400105066, Final residual = 0.0237243714456, No Iterations 2
DILUPBiCGStab:  Solving for Uz, Initial residual = 0.272747389136, Final residual = 0.0154774479813, No Iterations 2
linear solve U 1047317
[OGL LOG][Proc: 0]global_index_init : 1437 mu s
[OGL LOG][Proc: 0]global_index_init : 6 mu s
[OGL LOG][Proc: 0]global_index_init : 11 mu s
[OGL LOG][Proc: 0]global_index_init : 8 mu s
[OGL LOG][Proc: 0]update_host_matrix_data : 72083 mu s
[OGL LOG][Proc: 0]gather_global_matrix : 0 mu s
[OGL LOG][Proc: 0]init_precond : 12656108 mu s
[OGL LOG][Proc: 0]generate_solver : 1 mu s
[OGL LOG][Proc: 0]solve : 66627342 mu s
[OGL LOG][Proc: 0]retrieve_result_from_device : 334022 mu s
ILUhipGKOCG:  Solving for p, Initial residual = 1, Final residual = 1, No Iterations 1001
linear solve p 81348869
time step continuity errors : sum local = 0.215256051448, global = 0.000140084513545, cumulative = 0.000204112540277
DILUPBiCGStab:  Solving for omega, Initial residual = 0.00323472143743, Final residual = 0.000141988033958, No Iterations 1
linear solve omega 281495
bounding omega, min: -1115.38259994 max: 2808495.43236 average: 3490.53210788
DILUPBiCGStab:  Solving for k, Initial residual = 0.0264489771729, Final residual = 0.00118880922388, No Iterations 1
linear solve k 244377
ExecutionTime = 301.12 s  ClockTime = 303 s

End

Finalising parallel run
================================================================================
hash: e2d64dd51bac1b576a0066a4a9782e4f
/*---------------------------------------------------------------------------*\
| =========                 |                                                 |
| \\      /  F ield         | OpenFOAM: The Open Source CFD Toolbox           |
|  \\    /   O peration     | Version:  v2106                                 |
|   \\  /    A nd           | Website:  www.openfoam.com                      |
|    \\/     M anipulation  |                                                 |
\*---------------------------------------------------------------------------*/
Build  : f815a12bba-20210902 OPENFOAM=2106
Arch   : "LSB;label=32;scalar=64"
Exec   : simpleFoam -parallel
Date   : Jan 20 2022
Time   : 21:29:22
Host   : nla-gpu2.ianm.kit.edu
PID    : 2054689
I/O    : uncollated
Case   : /home/greole/data/code/ogl_labbook/motorcycle_resolution/resolution/Variation_mesh/Large/Variation_matrix_solver/CG_ILU_HIP/Variation_mpiRank/8/base
nProcs : 8
Hosts  :
(
    (nla-gpu2.ianm.kit.edu 8)
)
Pstream initialized with:
    floatTransfer      : 0
    nProcsSimpleSum    : 0
    commsType          : nonBlocking
    polling iterations : 0
trapFpe: Floating point exception trapping enabled (FOAM_SIGFPE).
fileModificationChecking : Monitoring run-time modified files using timeStampMaster (fileModificationSkew 5, maxFileModificationPolls 20)
allowSystemOperations : Allowing user-supplied system call operations

// * * * * * * * * * * * * * * * * * * * * * * * * * * * * * * * * * * * * * //
Create time

Create mesh for time = 0


SIMPLE: no convergence criteria found. Calculations will run for 3 steps.

Reading field p

Reading field U

Reading/calculating face flux field phi

Selecting incompressible transport model Newtonian
Selecting turbulence model type RAS
Selecting RAS turbulence model kOmegaSST
Selecting patchDistMethod meshWave
RAS
{
    RASModel        kOmegaSST;
    turbulence      on;
    printCoeffs     on;
    alphaK1         0.85;
    alphaK2         1;
    alphaOmega1     0.5;
    alphaOmega2     0.856;
    gamma1          0.555555555556;
    gamma2          0.44;
    beta1           0.075;
    beta2           0.0828;
    betaStar        0.09;
    a1              0.31;
    b1              1;
    c1              10;
    F3              false;
    decayControl    false;
    kInf            0;
    omegaInf        0;
}

No MRF models present

No finite volume options present

Starting time loop

Time = 1

DILUPBiCGStab:  Solving for Ux, Initial residual = 0.0298408184793, Final residual = 0.00218216071274, No Iterations 3
DILUPBiCGStab:  Solving for Uy, Initial residual = 0.416436009197, Final residual = 0.0316946277838, No Iterations 3
DILUPBiCGStab:  Solving for Uz, Initial residual = 0.262309070484, Final residual = 0.0117523460212, No Iterations 3
linear solve U 3308419
[OGL LOG][Proc: 0]global_index_init : 30165 mu s
[OGL LOG][Proc: 0]global_index_init : 4 mu s
[OGL LOG][Proc: 0]global_index_init : 4 mu s
[OGL LOG][Proc: 0]global_index_init : 4 mu s
[OGL LOG][Proc: 0]init_host_sparsity_pattern : 48031700 mu s
[OGL LOG][Proc: 0]update_host_matrix_data : 128145 mu s
[OGL LOG][Proc: 0]convert_coo_to_csr : 12132 mu s
[OGL LOG][Proc: 0]gather_global_matrix : 1 mu s
[OGL LOG][Proc: 0]init_precond : 1825814 mu s
[OGL LOG][Proc: 0]generate_solver : 11 mu s
[OGL LOG][Proc: 0]solve : 38134391 mu s
[OGL LOG][Proc: 0]retrieve_result_from_device : 80288 mu s
ILUhipGKOCG:  Solving for p, Initial residual = 1, Final residual = 1, No Iterations 1001
linear solve p 99259377
time step continuity errors : sum local = 0.0817449155963, global = 8.40182592972e-06, cumulative = 8.40182592972e-06
DILUPBiCGStab:  Solving for omega, Initial residual = 0.00354954962797, Final residual = 0.000162386108324, No Iterations 1
linear solve omega 549155
bounding omega, min: -60940.1665216 max: 2809464.71271 average: 2741.76044673
DILUPBiCGStab:  Solving for k, Initial residual = 0.999999998548, Final residual = 0.0438212211001, No Iterations 1
linear solve k 494441
ExecutionTime = 139.67 s  ClockTime = 166 s

Time = 2

DILUPBiCGStab:  Solving for Ux, Initial residual = 0.0165072738785, Final residual = 0.00161877459521, No Iterations 4
DILUPBiCGStab:  Solving for Uy, Initial residual = 0.273350250398, Final residual = 0.0268764719934, No Iterations 4
DILUPBiCGStab:  Solving for Uz, Initial residual = 0.0962872125259, Final residual = 0.0059022554381, No Iterations 4
linear solve U 3649729
[OGL LOG][Proc: 0]global_index_init : 1946 mu s
[OGL LOG][Proc: 0]global_index_init : 5 mu s
[OGL LOG][Proc: 0]global_index_init : 5 mu s
[OGL LOG][Proc: 0]global_index_init : 4 mu s
[OGL LOG][Proc: 0]update_host_matrix_data : 110725 mu s
[OGL LOG][Proc: 0]gather_global_matrix : 1 mu s
[OGL LOG][Proc: 0]init_precond : 1807685 mu s
[OGL LOG][Proc: 0]generate_solver : 1 mu s
[OGL LOG][Proc: 0]solve : 38068916 mu s
[OGL LOG][Proc: 0]retrieve_result_from_device : 82267 mu s
ILUhipGKOCG:  Solving for p, Initial residual = 1, Final residual = 1, No Iterations 1001
linear solve p 42998055
time step continuity errors : sum local = 0.156335283637, global = 6.84173918301e-05, cumulative = 7.68192177598e-05
DILUPBiCGStab:  Solving for omega, Initial residual = 0.0021124135986, Final residual = 8.78020038022e-05, No Iterations 1
linear solve omega 545695
bounding omega, min: -1339.83523683 max: 2809201.29319 average: 3087.48320247
DILUPBiCGStab:  Solving for k, Initial residual = 0.0424157648364, Final residual = 0.00189739677775, No Iterations 1
linear solve k 492179
ExecutionTime = 169.64 s  ClockTime = 222 s

Time = 3

DILUPBiCGStab:  Solving for Ux, Initial residual = 0.110688589988, Final residual = 0.00642128739366, No Iterations 2
DILUPBiCGStab:  Solving for Uy, Initial residual = 0.377729936578, Final residual = 0.0230711706695, No Iterations 2
DILUPBiCGStab:  Solving for Uz, Initial residual = 0.272779688227, Final residual = 0.0152983126187, No Iterations 2
linear solve U 2078013
[OGL LOG][Proc: 0]global_index_init : 1419 mu s
[OGL LOG][Proc: 0]global_index_init : 4 mu s
[OGL LOG][Proc: 0]global_index_init : 7 mu s
[OGL LOG][Proc: 0]global_index_init : 5 mu s
[OGL LOG][Proc: 0]update_host_matrix_data : 111132 mu s
[OGL LOG][Proc: 0]gather_global_matrix : 1 mu s
[OGL LOG][Proc: 0]init_precond : 1809384 mu s
[OGL LOG][Proc: 0]generate_solver : 1 mu s
[OGL LOG][Proc: 0]solve : 38094486 mu s
[OGL LOG][Proc: 0]retrieve_result_from_device : 84926 mu s
ILUhipGKOCG:  Solving for p, Initial residual = 1, Final residual = 1, No Iterations 1001
linear solve p 43022953
time step continuity errors : sum local = 0.214439783427, global = 0.000151953344213, cumulative = 0.000228772561973
DILUPBiCGStab:  Solving for omega, Initial residual = 0.00336854858019, Final residual = 0.000142997594967, No Iterations 1
linear solve omega 548540
bounding omega, min: -1118.72501265 max: 2808453.89977 average: 3492.95077121
DILUPBiCGStab:  Solving for k, Initial residual = 0.0266665549214, Final residual = 0.00111124531005, No Iterations 1
linear solve k 488054
ExecutionTime = 198.05 s  ClockTime = 276 s

End

Finalising parallel run
================================================================================
hash: 62b658929bc9aa12d6df14f89194e439
/*---------------------------------------------------------------------------*\
| =========                 |                                                 |
| \\      /  F ield         | OpenFOAM: The Open Source CFD Toolbox           |
|  \\    /   O peration     | Version:  v2106                                 |
|   \\  /    A nd           | Website:  www.openfoam.com                      |
|    \\/     M anipulation  |                                                 |
\*---------------------------------------------------------------------------*/
Build  : f815a12bba-20210902 OPENFOAM=2106
Arch   : "LSB;label=32;scalar=64"
Exec   : simpleFoam -parallel
Date   : Jan 20 2022
Time   : 21:34:00
Host   : nla-gpu2.ianm.kit.edu
PID    : 2057273
I/O    : uncollated
Case   : /home/greole/data/code/ogl_labbook/motorcycle_resolution/resolution/Variation_mesh/Large/Variation_matrix_solver/CG_Multigrid_HIP/Variation_mpiRank/32/base
nProcs : 32
Hosts  :
(
    (nla-gpu2.ianm.kit.edu 32)
)
Pstream initialized with:
    floatTransfer      : 0
    nProcsSimpleSum    : 0
    commsType          : nonBlocking
    polling iterations : 0
trapFpe: Floating point exception trapping enabled (FOAM_SIGFPE).
fileModificationChecking : Monitoring run-time modified files using timeStampMaster (fileModificationSkew 5, maxFileModificationPolls 20)
allowSystemOperations : Allowing user-supplied system call operations

// * * * * * * * * * * * * * * * * * * * * * * * * * * * * * * * * * * * * * //
Create time

Create mesh for time = 0


SIMPLE: no convergence criteria found. Calculations will run for 3 steps.

Reading field p

Reading field U

Reading/calculating face flux field phi

Selecting incompressible transport model Newtonian
Selecting turbulence model type RAS
Selecting RAS turbulence model kOmegaSST
Selecting patchDistMethod meshWave
RAS
{
    RASModel        kOmegaSST;
    turbulence      on;
    printCoeffs     on;
    alphaK1         0.85;
    alphaK2         1;
    alphaOmega1     0.5;
    alphaOmega2     0.856;
    gamma1          0.555555555556;
    gamma2          0.44;
    beta1           0.075;
    beta2           0.0828;
    betaStar        0.09;
    a1              0.31;
    b1              1;
    c1              10;
    F3              false;
    decayControl    false;
    kInf            0;
    omegaInf        0;
}

No MRF models present

No finite volume options present

Starting time loop

Time = 1

DILUPBiCGStab:  Solving for Ux, Initial residual = 0.0298408185319, Final residual = 0.0023442936585, No Iterations 3
DILUPBiCGStab:  Solving for Uy, Initial residual = 0.416436010106, Final residual = 0.0343159774748, No Iterations 3
DILUPBiCGStab:  Solving for Uz, Initial residual = 0.262309071038, Final residual = 0.0121250711235, No Iterations 3
linear solve U 1628219
[OGL LOG][Proc: 0]global_index_init : 401525 mu s
[OGL LOG][Proc: 0]global_index_init : 17 mu s
[OGL LOG][Proc: 0]global_index_init : 8 mu s
[OGL LOG][Proc: 0]global_index_init : 8 mu s
[OGL LOG][Proc: 0]init_host_sparsity_pattern : 5956401 mu s
[OGL LOG][Proc: 0]update_host_matrix_data : 45813 mu s
[OGL LOG][Proc: 0]convert_coo_to_csr : 11810 mu s
[OGL LOG][Proc: 0]gather_global_matrix : 0 mu s
[OGL LOG][Proc: 0]init_precond : 21619815 mu s
[OGL LOG][Proc: 0]generate_solver : 14 mu s
[OGL LOG][Proc: 0]solve : 21483578 mu s
[OGL LOG][Proc: 0]retrieve_result_from_device : 681889 mu s
MultigridhipGKOCG:  Solving for p, Initial residual = 1, Final residual = 0.00812601623781, No Iterations 24
linear solve p 68184197
time step continuity errors : sum local = 0.000668393499488, global = 1.56235253764e-05, cumulative = 1.56235253764e-05
DILUPBiCGStab:  Solving for omega, Initial residual = 0.00231517810007, Final residual = 5.7016121546e-05, No Iterations 1
linear solve omega 280904
bounding omega, min: -64021.6274993 max: 2809464.71271 average: 2480.23674413
DILUPBiCGStab:  Solving for k, Initial residual = 0.999999999284, Final residual = 0.0479490839131, No Iterations 1
linear solve k 253404
ExecutionTime = 91.1 s  ClockTime = 91 s

Time = 2

DILUPBiCGStab:  Solving for Ux, Initial residual = 0.0152115172464, Final residual = 0.00107234517588, No Iterations 3
DILUPBiCGStab:  Solving for Uy, Initial residual = 0.262333596662, Final residual = 0.0184725156905, No Iterations 3
DILUPBiCGStab:  Solving for Uz, Initial residual = 0.129658688683, Final residual = 0.00712434143634, No Iterations 3
linear solve U 1392946
[OGL LOG][Proc: 0]global_index_init : 1364 mu s
[OGL LOG][Proc: 0]global_index_init : 7 mu s
[OGL LOG][Proc: 0]global_index_init : 11 mu s
[OGL LOG][Proc: 0]global_index_init : 9 mu s
[OGL LOG][Proc: 0]update_host_matrix_data : 75913 mu s
[OGL LOG][Proc: 0]gather_global_matrix : 0 mu s
[OGL LOG][Proc: 0]init_precond : 17750176 mu s
[OGL LOG][Proc: 0]generate_solver : 1 mu s
[OGL LOG][Proc: 0]solve : 19322142 mu s
[OGL LOG][Proc: 0]retrieve_result_from_device : 351710 mu s
MultigridhipGKOCG:  Solving for p, Initial residual = 0.0349083362057, Final residual = 0.000326901284711, No Iterations 21
linear solve p 39347078
time step continuity errors : sum local = 0.103456876883, global = -5.43085292621e-05, cumulative = -3.86850038857e-05
DILUPBiCGStab:  Solving for omega, Initial residual = 0.001772739114, Final residual = 4.54655737528e-05, No Iterations 1
linear solve omega 303290
bounding omega, min: -217.556693953 max: 2809571.73379 average: 2823.18665007
DILUPBiCGStab:  Solving for k, Initial residual = 0.0314700040748, Final residual = 0.00134045088946, No Iterations 1
linear solve k 252022
ExecutionTime = 136.73 s  ClockTime = 137 s

Time = 3

DILUPBiCGStab:  Solving for Ux, Initial residual = 0.0756745824372, Final residual = 0.00646541680347, No Iterations 7
DILUPBiCGStab:  Solving for Uy, Initial residual = 0.498193195273, Final residual = 0.0423296083801, No Iterations 7
DILUPBiCGStab:  Solving for Uz, Initial residual = 0.468751892152, Final residual = 0.0462971016416, No Iterations 8
linear solve U 3293776
[OGL LOG][Proc: 0]global_index_init : 1235 mu s
[OGL LOG][Proc: 0]global_index_init : 8 mu s
[OGL LOG][Proc: 0]global_index_init : 7 mu s
[OGL LOG][Proc: 0]global_index_init : 11 mu s
[OGL LOG][Proc: 0]update_host_matrix_data : 71388 mu s
[OGL LOG][Proc: 0]gather_global_matrix : 0 mu s
[OGL LOG][Proc: 0]init_precond : 17833344 mu s
[OGL LOG][Proc: 0]generate_solver : 1 mu s
[OGL LOG][Proc: 0]solve : 15656243 mu s
[OGL LOG][Proc: 0]retrieve_result_from_device : 356702 mu s
MultigridhipGKOCG:  Solving for p, Initial residual = 0.962622550709, Final residual = 0.00138557070047, No Iterations 17
linear solve p 35373088
time step continuity errors : sum local = 4263.5279474, global = -0.00783820007202, cumulative = -0.00787688507591
DILUPBiCGStab:  Solving for omega, Initial residual = 0.0862436343841, Final residual = 0.000355815069535, No Iterations 1
linear solve omega 210194
DILUPBiCGStab:  Solving for k, Initial residual = 0.133631864324, Final residual = 0.000292299140815, No Iterations 1
linear solve k 240422
ExecutionTime = 180.12 s  ClockTime = 180 s

End

Finalising parallel run
================================================================================
hash: 1364c02d4952903c77484c5c9ca5e548
/*---------------------------------------------------------------------------*\
| =========                 |                                                 |
| \\      /  F ield         | OpenFOAM: The Open Source CFD Toolbox           |
|  \\    /   O peration     | Version:  v2106                                 |
|   \\  /    A nd           | Website:  www.openfoam.com                      |
|    \\/     M anipulation  |                                                 |
\*---------------------------------------------------------------------------*/
Build  : f815a12bba-20210902 OPENFOAM=2106
Arch   : "LSB;label=32;scalar=64"
Exec   : simpleFoam -parallel
Date   : Jan 20 2022
Time   : 21:37:01
Host   : nla-gpu2.ianm.kit.edu
PID    : 2059124
I/O    : uncollated
Case   : /home/greole/data/code/ogl_labbook/motorcycle_resolution/resolution/Variation_mesh/Large/Variation_matrix_solver/CG_Multigrid_HIP/Variation_mpiRank/8/base
nProcs : 8
Hosts  :
(
    (nla-gpu2.ianm.kit.edu 8)
)
Pstream initialized with:
    floatTransfer      : 0
    nProcsSimpleSum    : 0
    commsType          : nonBlocking
    polling iterations : 0
trapFpe: Floating point exception trapping enabled (FOAM_SIGFPE).
fileModificationChecking : Monitoring run-time modified files using timeStampMaster (fileModificationSkew 5, maxFileModificationPolls 20)
allowSystemOperations : Allowing user-supplied system call operations

// * * * * * * * * * * * * * * * * * * * * * * * * * * * * * * * * * * * * * //
Create time

Create mesh for time = 0


SIMPLE: no convergence criteria found. Calculations will run for 3 steps.

Reading field p

Reading field U

Reading/calculating face flux field phi

Selecting incompressible transport model Newtonian
Selecting turbulence model type RAS
Selecting RAS turbulence model kOmegaSST
Selecting patchDistMethod meshWave
RAS
{
    RASModel        kOmegaSST;
    turbulence      on;
    printCoeffs     on;
    alphaK1         0.85;
    alphaK2         1;
    alphaOmega1     0.5;
    alphaOmega2     0.856;
    gamma1          0.555555555556;
    gamma2          0.44;
    beta1           0.075;
    beta2           0.0828;
    betaStar        0.09;
    a1              0.31;
    b1              1;
    c1              10;
    F3              false;
    decayControl    false;
    kInf            0;
    omegaInf        0;
}

No MRF models present

No finite volume options present

Starting time loop

Time = 1

DILUPBiCGStab:  Solving for Ux, Initial residual = 0.0298408184793, Final residual = 0.00218216071274, No Iterations 3
DILUPBiCGStab:  Solving for Uy, Initial residual = 0.416436009197, Final residual = 0.0316946277838, No Iterations 3
DILUPBiCGStab:  Solving for Uz, Initial residual = 0.262309070484, Final residual = 0.0117523460212, No Iterations 3
linear solve U 3299561
[OGL LOG][Proc: 0]global_index_init : 23041 mu s
[OGL LOG][Proc: 0]global_index_init : 5 mu s
[OGL LOG][Proc: 0]global_index_init : 4 mu s
[OGL LOG][Proc: 0]global_index_init : 5 mu s
[OGL LOG][Proc: 0]init_host_sparsity_pattern : 47848184 mu s
[OGL LOG][Proc: 0]update_host_matrix_data : 128482 mu s
[OGL LOG][Proc: 0]convert_coo_to_csr : 11872 mu s
[OGL LOG][Proc: 0]gather_global_matrix : 1 mu s
[OGL LOG][Proc: 0]init_precond : 2963165 mu s
[OGL LOG][Proc: 0]generate_solver : 8 mu s
[OGL LOG][Proc: 0]solve : 3547275 mu s
[OGL LOG][Proc: 0]retrieve_result_from_device : 79240 mu s
MultigridhipGKOCG:  Solving for p, Initial residual = 1, Final residual = 0.00825727339559, No Iterations 24
linear solve p 65627414
time step continuity errors : sum local = 0.000674990116778, global = 1.63937766256e-05, cumulative = 1.63937766256e-05
DILUPBiCGStab:  Solving for omega, Initial residual = 0.00231431995962, Final residual = 5.56908473957e-05, No Iterations 1
linear solve omega 546578
bounding omega, min: -64113.3359828 max: 2809464.71271 average: 2480.54957111
DILUPBiCGStab:  Solving for k, Initial residual = 0.99999999838, Final residual = 0.042916365679, No Iterations 1
linear solve k 489257
ExecutionTime = 132.03 s  ClockTime = 132 s

Time = 2

DILUPBiCGStab:  Solving for Ux, Initial residual = 0.015210867271, Final residual = 0.00100576154041, No Iterations 3
DILUPBiCGStab:  Solving for Uy, Initial residual = 0.261554274826, Final residual = 0.0185878344533, No Iterations 3
DILUPBiCGStab:  Solving for Uz, Initial residual = 0.130020866267, Final residual = 0.00669663424106, No Iterations 3
linear solve U 2801644
[OGL LOG][Proc: 0]global_index_init : 1462 mu s
[OGL LOG][Proc: 0]global_index_init : 4 mu s
[OGL LOG][Proc: 0]global_index_init : 5 mu s
[OGL LOG][Proc: 0]global_index_init : 4 mu s
[OGL LOG][Proc: 0]update_host_matrix_data : 110722 mu s
[OGL LOG][Proc: 0]gather_global_matrix : 1 mu s
[OGL LOG][Proc: 0]init_precond : 2905388 mu s
[OGL LOG][Proc: 0]generate_solver : 1 mu s
[OGL LOG][Proc: 0]solve : 3072373 mu s
[OGL LOG][Proc: 0]retrieve_result_from_device : 81939 mu s
MultigridhipGKOCG:  Solving for p, Initial residual = 0.0344095674526, Final residual = 0.000329514767989, No Iterations 21
linear solve p 9056622
time step continuity errors : sum local = 0.0938321339054, global = -4.49972962595e-05, cumulative = -2.86035196339e-05
DILUPBiCGStab:  Solving for omega, Initial residual = 0.00171369052804, Final residual = 4.50338839647e-05, No Iterations 1
linear solve omega 538161
bounding omega, min: -211.846802959 max: 2809558.15438 average: 2821.57955992
DILUPBiCGStab:  Solving for k, Initial residual = 0.030939837311, Final residual = 0.00117585748696, No Iterations 1
linear solve k 485214
ExecutionTime = 153.66 s  ClockTime = 153 s

Time = 3

DILUPBiCGStab:  Solving for Ux, Initial residual = 0.0756233646578, Final residual = 0.00741303988901, No Iterations 7
DILUPBiCGStab:  Solving for Uy, Initial residual = 0.504592342894, Final residual = 0.040760334919, No Iterations 7
DILUPBiCGStab:  Solving for Uz, Initial residual = 0.459935001823, Final residual = 0.0391362213103, No Iterations 7
linear solve U 6606455
[OGL LOG][Proc: 0]global_index_init : 1115 mu s
[OGL LOG][Proc: 0]global_index_init : 3 mu s
[OGL LOG][Proc: 0]global_index_init : 6 mu s
[OGL LOG][Proc: 0]global_index_init : 4 mu s
[OGL LOG][Proc: 0]update_host_matrix_data : 110689 mu s
[OGL LOG][Proc: 0]gather_global_matrix : 1 mu s
[OGL LOG][Proc: 0]init_precond : 2906257 mu s
[OGL LOG][Proc: 0]generate_solver : 1 mu s
[OGL LOG][Proc: 0]solve : 2499430 mu s
[OGL LOG][Proc: 0]retrieve_result_from_device : 76328 mu s
MultigridhipGKOCG:  Solving for p, Initial residual = 0.96402442818, Final residual = 0.00142127943835, No Iterations 17
linear solve p 8487443
time step continuity errors : sum local = 4023.42777072, global = -0.00928771994585, cumulative = -0.00931632346549
DILUPBiCGStab:  Solving for omega, Initial residual = 0.0995381797417, Final residual = 0.000395964337636, No Iterations 1
linear solve omega 394208
bounding omega, min: -850.342371964 max: 2809003.72885 average: 3319.81875998
DILUPBiCGStab:  Solving for k, Initial residual = 0.130318665727, Final residual = 0.000237370885291, No Iterations 1
linear solve k 487775
ExecutionTime = 178.38 s  ClockTime = 178 s

End

Finalising parallel run
================================================================================
hash: c1b52fe1315f48ad5edb775175b74f13
/*---------------------------------------------------------------------------*\
| =========                 |                                                 |
| \\      /  F ield         | OpenFOAM: The Open Source CFD Toolbox           |
|  \\    /   O peration     | Version:  v2106                                 |
|   \\  /    A nd           | Website:  www.openfoam.com                      |
|    \\/     M anipulation  |                                                 |
\*---------------------------------------------------------------------------*/
Build  : f815a12bba-20210902 OPENFOAM=2106
Arch   : "LSB;label=32;scalar=64"
Exec   : simpleFoam -parallel
Date   : Jan 20 2022
Time   : 21:40:01
Host   : nla-gpu2.ianm.kit.edu
PID    : 2060836
I/O    : uncollated
Case   : /home/greole/data/code/ogl_labbook/motorcycle_resolution/resolution/Variation_mesh/Large/Variation_matrix_solver/BiCGStab_ILU_HIP/Variation_mpiRank/32/base
nProcs : 32
Hosts  :
(
    (nla-gpu2.ianm.kit.edu 32)
)
Pstream initialized with:
    floatTransfer      : 0
    nProcsSimpleSum    : 0
    commsType          : nonBlocking
    polling iterations : 0
trapFpe: Floating point exception trapping enabled (FOAM_SIGFPE).
fileModificationChecking : Monitoring run-time modified files using timeStampMaster (fileModificationSkew 5, maxFileModificationPolls 20)
allowSystemOperations : Allowing user-supplied system call operations

// * * * * * * * * * * * * * * * * * * * * * * * * * * * * * * * * * * * * * //
Create time

Create mesh for time = 0


SIMPLE: no convergence criteria found. Calculations will run for 3 steps.

Reading field p

Reading field U

Reading/calculating face flux field phi

Selecting incompressible transport model Newtonian
Selecting turbulence model type RAS
Selecting RAS turbulence model kOmegaSST
Selecting patchDistMethod meshWave
RAS
{
    RASModel        kOmegaSST;
    turbulence      on;
    printCoeffs     on;
    alphaK1         0.85;
    alphaK2         1;
    alphaOmega1     0.5;
    alphaOmega2     0.856;
    gamma1          0.555555555556;
    gamma2          0.44;
    beta1           0.075;
    beta2           0.0828;
    betaStar        0.09;
    a1              0.31;
    b1              1;
    c1              10;
    F3              false;
    decayControl    false;
    kInf            0;
    omegaInf        0;
}

No MRF models present

No finite volume options present

Starting time loop

Time = 1

DILUPBiCGStab:  Solving for Ux, Initial residual = 0.0298408185319, Final residual = 0.0023442936585, No Iterations 3
DILUPBiCGStab:  Solving for Uy, Initial residual = 0.416436010106, Final residual = 0.0343159774748, No Iterations 3
DILUPBiCGStab:  Solving for Uz, Initial residual = 0.262309071038, Final residual = 0.0121250711235, No Iterations 3
linear solve U 1629859
[OGL LOG][Proc: 0]global_index_init : 278306 mu s
[OGL LOG][Proc: 0]global_index_init : 888 mu s
[OGL LOG][Proc: 0]global_index_init : 7 mu s
[OGL LOG][Proc: 0]global_index_init : 8 mu s
[OGL LOG][Proc: 0]init_host_sparsity_pattern : 5955276 mu s
[OGL LOG][Proc: 0]update_host_matrix_data : 45351 mu s
[OGL LOG][Proc: 0]convert_coo_to_csr : 11947 mu s
[OGL LOG][Proc: 0]gather_global_matrix : 0 mu s
[OGL LOG][Proc: 0]init_precond : 12273698 mu s
[OGL LOG][Proc: 0]generate_solver : 13 mu s
[OGL LOG][Proc: 0]solve : 153264114 mu s
[OGL LOG][Proc: 0]retrieve_result_from_device : 194355 mu s
ILUhipGKOBiCGStab:  Solving for p, Initial residual = 1, Final residual = 1, No Iterations 1000
linear solve p 189671227
time step continuity errors : sum local = 0.0822535274269, global = 4.56226269515e-06, cumulative = 4.56226269515e-06
DILUPBiCGStab:  Solving for omega, Initial residual = 0.00355003730912, Final residual = 0.000165262405133, No Iterations 1
linear solve omega 310600
bounding omega, min: -60868.0348677 max: 2809464.71271 average: 2740.57639919
DILUPBiCGStab:  Solving for k, Initial residual = 0.999999999359, Final residual = 0.0487581352803, No Iterations 1
linear solve k 255788
ExecutionTime = 214.24 s  ClockTime = 212 s

Time = 2

DILUPBiCGStab:  Solving for Ux, Initial residual = 0.0165791128607, Final residual = 0.000999169821134, No Iterations 4
DILUPBiCGStab:  Solving for Uy, Initial residual = 0.273477647651, Final residual = 0.0199566890983, No Iterations 4
DILUPBiCGStab:  Solving for Uz, Initial residual = 0.0972999312391, Final residual = 0.00621838070316, No Iterations 4
linear solve U 1925962
[OGL LOG][Proc: 0]global_index_init : 1119 mu s
[OGL LOG][Proc: 0]global_index_init : 7 mu s
[OGL LOG][Proc: 0]global_index_init : 8 mu s
[OGL LOG][Proc: 0]global_index_init : 11 mu s
[OGL LOG][Proc: 0]update_host_matrix_data : 78824 mu s
[OGL LOG][Proc: 0]gather_global_matrix : 1 mu s
[OGL LOG][Proc: 0]init_precond : 13049901 mu s
[OGL LOG][Proc: 0]generate_solver : 1 mu s
[OGL LOG][Proc: 0]solve : 135772161 mu s
[OGL LOG][Proc: 0]retrieve_result_from_device : 329416 mu s
ILUhipGKOBiCGStab:  Solving for p, Initial residual = 1, Final residual = 1, No Iterations 1000
linear solve p 150892948
time step continuity errors : sum local = 0.156750831929, global = 5.94657640367e-05, cumulative = 6.40280267318e-05
DILUPBiCGStab:  Solving for omega, Initial residual = 0.00211439674914, Final residual = 8.9607367946e-05, No Iterations 1
linear solve omega 289753
bounding omega, min: -1339.61762824 max: 2809212.76331 average: 3086.90501288
DILUPBiCGStab:  Solving for k, Initial residual = 0.0423302885324, Final residual = 0.00213815799608, No Iterations 1
linear solve k 250569
ExecutionTime = 373.23 s  ClockTime = 369 s

Time = 3

DILUPBiCGStab:  Solving for Ux, Initial residual = 0.110664163441, Final residual = 0.00638493657507, No Iterations 2
DILUPBiCGStab:  Solving for Uy, Initial residual = 0.378400105066, Final residual = 0.0237243714456, No Iterations 2
DILUPBiCGStab:  Solving for Uz, Initial residual = 0.272747389136, Final residual = 0.0154774479813, No Iterations 2
linear solve U 1054516
[OGL LOG][Proc: 0]global_index_init : 1288 mu s
[OGL LOG][Proc: 0]global_index_init : 8 mu s
[OGL LOG][Proc: 0]global_index_init : 9 mu s
[OGL LOG][Proc: 0]global_index_init : 9 mu s
[OGL LOG][Proc: 0]update_host_matrix_data : 72281 mu s
[OGL LOG][Proc: 0]gather_global_matrix : 0 mu s
[OGL LOG][Proc: 0]init_precond : 14669615 mu s
[OGL LOG][Proc: 0]generate_solver : 1 mu s
[OGL LOG][Proc: 0]solve : 129859636 mu s
[OGL LOG][Proc: 0]retrieve_result_from_device : 332420 mu s
ILUhipGKOBiCGStab:  Solving for p, Initial residual = 1, Final residual = 1, No Iterations 1000
linear solve p 146607835
time step continuity errors : sum local = 0.215256051448, global = 0.000140084513545, cumulative = 0.000204112540277
DILUPBiCGStab:  Solving for omega, Initial residual = 0.00323472143743, Final residual = 0.000141988033958, No Iterations 1
linear solve omega 304312
bounding omega, min: -1115.38259994 max: 2808495.43236 average: 3490.53210788
DILUPBiCGStab:  Solving for k, Initial residual = 0.0264489771729, Final residual = 0.00118880922388, No Iterations 1
linear solve k 254320
ExecutionTime = 527.06 s  ClockTime = 522 s

End

Finalising parallel run
================================================================================
hash: 1ed50231d1c6820a6cc47cfe148d0527
/*---------------------------------------------------------------------------*\
| =========                 |                                                 |
| \\      /  F ield         | OpenFOAM: The Open Source CFD Toolbox           |
[...]
{
    RASModel        kOmegaSST;
    turbulence      on;
    printCoeffs     on;
    alphaK1         0.85;
    alphaK2         1;
    alphaOmega1     0.5;
    alphaOmega2     0.856;
    gamma1          0.555555555556;
    gamma2          0.44;
    beta1           0.075;
    beta2           0.0828;
    betaStar        0.09;
    a1              0.31;
    b1              1;
    c1              10;
    F3              false;
    decayControl    false;
    kInf            0;
    omegaInf        0;
}

No MRF models present

No finite volume options present

Starting time loop

Time = 1

DILUPBiCGStab:  Solving for Ux, Initial residual = 0.0297437182706, Final residual = 0.000905864876738, No Iterations 4
DILUPBiCGStab:  Solving for Uy, Initial residual = 0.416432356952, Final residual = 0.0324299698775, No Iterations 3
DILUPBiCGStab:  Solving for Uz, Initial residual = 0.261867894562, Final residual = 0.013290606365, No Iterations 3
linear solve U 1680329
[OGL LOG][Proc: 0]global_index_init : 25094 mu s
[OGL LOG][Proc: 0]global_index_init : 4 mu s
[OGL LOG][Proc: 0]global_index_init : 5 mu s
[OGL LOG][Proc: 0]global_index_init : 4 mu s
[OGL LOG][Proc: 0]init_host_sparsity_pattern : 25991935 mu s
[OGL LOG][Proc: 0]update_host_matrix_data : 64142 mu s
[OGL LOG][Proc: 0]convert_coo_to_csr : 8585 mu s
[OGL LOG][Proc: 0]gather_global_matrix : 1 mu s
[OGL LOG][Proc: 0]init_precond : 1051766 mu s
[OGL LOG][Proc: 0]generate_solver : 9 mu s
[OGL LOG][Proc: 0]solve : 12778415 mu s
[OGL LOG][Proc: 0]retrieve_result_from_device : 43212 mu s
MultigridhipGKOGMRES:  Solving for p, Initial residual = 1, Final residual = 1.9411728339e-09, No Iterations 102
linear solve p 49238169
time step continuity errors : sum local = 1.37950544304e-10, global = -4.31443305358e-11, cumulative = -4.31443305358e-11
DILUPBiCGStab:  Solving for omega, Initial residual = 0.00231424075858, Final residual = 5.60970550181e-05, No Iterations 1
linear solve omega 237398
bounding omega, min: -64381.6224455 max: 2809464.71271 average: 2480.69738764
DILUPBiCGStab:  Solving for k, Initial residual = 0.999999998675, Final residual = 0.0420469272241, No Iterations 1
linear solve k 232786
ExecutionTime = 84.72 s  ClockTime = 83 s

Time = 2

DILUPBiCGStab:  Solving for Ux, Initial residual = 0.0152227015469, Final residual = 0.00106101947693, No Iterations 3
DILUPBiCGStab:  Solving for Uy, Initial residual = 0.263622642509, Final residual = 0.0169938666093, No Iterations 3
DILUPBiCGStab:  Solving for Uz, Initial residual = 0.130752353912, Final residual = 0.00677958698854, No Iterations 3
linear solve U 1394207
[OGL LOG][Proc: 0]global_index_init : 208 mu s
[OGL LOG][Proc: 0]global_index_init : 3 mu s
[OGL LOG][Proc: 0]global_index_init : 4 mu s
[OGL LOG][Proc: 0]global_index_init : 4 mu s
[OGL LOG][Proc: 0]update_host_matrix_data : 54452 mu s
[OGL LOG][Proc: 0]gather_global_matrix : 1 mu s
[OGL LOG][Proc: 0]init_precond : 997044 mu s
[OGL LOG][Proc: 0]generate_solver : 1 mu s
[OGL LOG][Proc: 0]solve : 12943777 mu s
[OGL LOG][Proc: 0]retrieve_result_from_device : 45165 mu s
MultigridhipGKOGMRES:  Solving for p, Initial residual = 0.0341691881543, Final residual = 7.74395080698e-11, No Iterations 105
linear solve p 15493569
time step continuity errors : sum local = 0.0934934546029, global = -2.40999084102e-05, cumulative = -2.40999515545e-05
DILUPBiCGStab:  Solving for omega, Initial residual = 0.00168839465425, Final residual = 4.52551699195e-05, No Iterations 1
linear solve omega 236192
bounding omega, min: -185.023218249 max: 2809497.11782 average: 2819.00855631
DILUPBiCGStab:  Solving for k, Initial residual = 0.0310104154541, Final residual = 0.00116211306968, No Iterations 1
linear solve k 236044
ExecutionTime = 107.36 s  ClockTime = 105 s

Time = 3

DILUPBiCGStab:  Solving for Ux, Initial residual = 0.0702736279402, Final residual = 0.00135544839775, No Iterations 9
DILUPBiCGStab:  Solving for Uy, Initial residual = 0.495222937095, Final residual = 0.044932785743, No Iterations 7
DILUPBiCGStab:  Solving for Uz, Initial residual = 0.480078544567, Final residual = 0.0237429264424, No Iterations 7
linear solve U 3453862
[OGL LOG][Proc: 0]global_index_init : 265 mu s
[OGL LOG][Proc: 0]global_index_init : 3 mu s
[OGL LOG][Proc: 0]global_index_init : 5 mu s
[OGL LOG][Proc: 0]global_index_init : 5 mu s
[OGL LOG][Proc: 0]update_host_matrix_data : 54473 mu s
[OGL LOG][Proc: 0]gather_global_matrix : 1 mu s
[OGL LOG][Proc: 0]init_precond : 995922 mu s
[OGL LOG][Proc: 0]generate_solver : 1 mu s
[OGL LOG][Proc: 0]solve : 13092499 mu s
[OGL LOG][Proc: 0]retrieve_result_from_device : 43812 mu s
MultigridhipGKOGMRES:  Solving for p, Initial residual = 0.956913793187, Final residual = 5.82726598125e-10, No Iterations 105
linear solve p 15639630
time step continuity errors : sum local = 3831.21718058, global = 0.00114391656614, cumulative = 0.00111981661458
DILUPBiCGStab:  Solving for omega, Initial residual = 0.0941450588024, Final residual = 0.000365735858237, No Iterations 1
linear solve omega 165006
bounding omega, min: -12.8582871093 max: 2808964.51159 average: 3306.1555798
DILUPBiCGStab:  Solving for k, Initial residual = 0.131018791487, Final residual = 0.000273452493852, No Iterations 1
linear solve k 241948
ExecutionTime = 132.18 s  ClockTime = 129 s

End

Finalising parallel run
================================================================================
hash: 34159e1760303d48a304d860a87b3d12
/*---------------------------------------------------------------------------*\
| =========                 |                                                 |
| \\      /  F ield         | OpenFOAM: The Open Source CFD Toolbox           |
|  \\    /   O peration     | Version:  v2106                                 |
|   \\  /    A nd           | Website:  www.openfoam.com                      |
|    \\/     M anipulation  |                                                 |
\*---------------------------------------------------------------------------*/
Build  : f815a12bba-20210902 OPENFOAM=2106
Arch   : "LSB;label=32;scalar=64"
Exec   : simpleFoam -parallel
Date   : Jan 20 2022
Time   : 22:46:07
Host   : nla-gpu2.ianm.kit.edu
PID    : 2101991
I/O    : uncollated
Case   : /home/greole/data/code/ogl_labbook/motorcycle_resolution/resolution/Variation_mesh/Medium/Variation_matrix_solver/GMRES_BJ_HIP/Variation_mpiRank/32/base
nProcs : 32
Hosts  :
(
    (nla-gpu2.ianm.kit.edu 32)
)
Pstream initialized with:
    floatTransfer      : 0
    nProcsSimpleSum    : 0
    commsType          : nonBlocking
    polling iterations : 0
trapFpe: Floating point exception trapping enabled (FOAM_SIGFPE).
fileModificationChecking : Monitoring run-time modified files using timeStampMaster (fileModificationSkew 5, maxFileModificationPolls 20)
allowSystemOperations : Allowing user-supplied system call operations

// * * * * * * * * * * * * * * * * * * * * * * * * * * * * * * * * * * * * * //
Create time

Create mesh for time = 0


SIMPLE: no convergence criteria found. Calculations will run for 3 steps.

Reading field p

Reading field U

Reading/calculating face flux field phi

Selecting incompressible transport model Newtonian
Selecting turbulence model type RAS
Selecting RAS turbulence model kOmegaSST
Selecting patchDistMethod meshWave
RAS
{
    RASModel        kOmegaSST;
    turbulence      on;
    printCoeffs     on;
    alphaK1         0.85;
    alphaK2         1;
    alphaOmega1     0.5;
    alphaOmega2     0.856;
    gamma1          0.555555555556;
    gamma2          0.44;
    beta1           0.075;
    beta2           0.0828;
    betaStar        0.09;
    a1              0.31;
    b1              1;
    c1              10;
    F3              false;
    decayControl    false;
    kInf            0;
    omegaInf        0;
}

No MRF models present

No finite volume options present

Starting time loop

Time = 1

DILUPBiCGStab:  Solving for Ux, Initial residual = 0.029743718378, Final residual = 0.00120256183022, No Iterations 4
DILUPBiCGStab:  Solving for Uy, Initial residual = 0.416432357947, Final residual = 0.0116419188817, No Iterations 4
DILUPBiCGStab:  Solving for Uz, Initial residual = 0.261867894903, Final residual = 0.0220859659179, No Iterations 2
linear solve U 842265
[OGL LOG][Proc: 0]global_index_init : 221188 mu s
[OGL LOG][Proc: 0]global_index_init : 6 mu s
[OGL LOG][Proc: 0]global_index_init : 8 mu s
[OGL LOG][Proc: 0]global_index_init : 9 mu s
[OGL LOG][Proc: 0]init_host_sparsity_pattern : 5782049 mu s
[OGL LOG][Proc: 0]update_host_matrix_data : 20838 mu s
[OGL LOG][Proc: 0]convert_coo_to_csr : 7952 mu s
[OGL LOG][Proc: 0]gather_global_matrix : 1 mu s
 block size 1
[OGL LOG][Proc: 0]init_precond : 38556 mu s
[OGL LOG][Proc: 0]generate_solver : 16 mu s
[OGL LOG][Proc: 0]solve : 63252265 mu s
[OGL LOG][Proc: 0]retrieve_result_from_device : 48962 mu s
BJhipGKOGMRES:  Solving for p, Initial residual = 1, Final residual = 0.00504417425706, No Iterations 202
linear solve p 73703486
time step continuity errors : sum local = 0.000402362726117, global = 7.4949834623e-05, cumulative = 7.4949834623e-05
DILUPBiCGStab:  Solving for omega, Initial residual = 0.00231551188983, Final residual = 5.75587735305e-05, No Iterations 1
linear solve omega 143780
bounding omega, min: -64141.7273457 max: 2809464.71271 average: 2480.09753866
DILUPBiCGStab:  Solving for k, Initial residual = 0.999999997027, Final residual = 0.0486325772647, No Iterations 1
linear solve k 121128
ExecutionTime = 85.7 s  ClockTime = 86 s

Time = 2

DILUPBiCGStab:  Solving for Ux, Initial residual = 0.0152839833785, Final residual = 0.00116936730238, No Iterations 3
DILUPBiCGStab:  Solving for Uy, Initial residual = 0.268673603824, Final residual = 0.0204843079517, No Iterations 3
DILUPBiCGStab:  Solving for Uz, Initial residual = 0.130489070703, Final residual = 0.00848828214965, No Iterations 3
linear solve U 689355
[OGL LOG][Proc: 0]global_index_init : 698 mu s
[OGL LOG][Proc: 0]global_index_init : 7 mu s
[OGL LOG][Proc: 0]global_index_init : 11 mu s
[OGL LOG][Proc: 0]global_index_init : 10 mu s
[OGL LOG][Proc: 0]update_host_matrix_data : 34222 mu s
[OGL LOG][Proc: 0]gather_global_matrix : 0 mu s
 block size 1
[OGL LOG][Proc: 0]init_precond : 10064 mu s
[OGL LOG][Proc: 0]generate_solver : 2 mu s
[OGL LOG][Proc: 0]solve : 61492805 mu s
[OGL LOG][Proc: 0]retrieve_result_from_device : 46535 mu s
BJhipGKOGMRES:  Solving for p, Initial residual = 0.0357466479205, Final residual = 0.000296781066767, No Iterations 209
linear solve p 62483002
time step continuity errors : sum local = 0.107932108161, global = 3.28234184447e-05, cumulative = 0.000107773253068
DILUPBiCGStab:  Solving for omega, Initial residual = 0.0018238782962, Final residual = 4.61766869742e-05, No Iterations 1
linear solve omega 140342
bounding omega, min: -571.80524246 max: 2809570.1162 average: 2823.66081822
DILUPBiCGStab:  Solving for k, Initial residual = 0.0317708506407, Final residual = 0.00134748795248, No Iterations 1
linear solve k 126376
ExecutionTime = 151.06 s  ClockTime = 151 s

Time = 3

DILUPBiCGStab:  Solving for Ux, Initial residual = 0.0764099169681, Final residual = 0.00628974177129, No Iterations 7
DILUPBiCGStab:  Solving for Uy, Initial residual = 0.500414150795, Final residual = 0.0338212501852, No Iterations 7
DILUPBiCGStab:  Solving for Uz, Initial residual = 0.482116369709, Final residual = 0.0411514387646, No Iterations 7
linear solve U 1516637
[OGL LOG][Proc: 0]global_index_init : 682 mu s
[OGL LOG][Proc: 0]global_index_init : 6 mu s
[OGL LOG][Proc: 0]global_index_init : 8 mu s
[OGL LOG][Proc: 0]global_index_init : 9 mu s
[OGL LOG][Proc: 0]update_host_matrix_data : 34077 mu s
[OGL LOG][Proc: 0]gather_global_matrix : 0 mu s
 block size 1
[OGL LOG][Proc: 0]init_precond : 10059 mu s
[OGL LOG][Proc: 0]generate_solver : 1 mu s
[OGL LOG][Proc: 0]solve : 43437052 mu s
[OGL LOG][Proc: 0]retrieve_result_from_device : 47579 mu s
BJhipGKOGMRES:  Solving for p, Initial residual = 0.946762065058, Final residual = 0.00664712761101, No Iterations 169
linear solve p 45154448
time step continuity errors : sum local = 3361.3080463, global = 0.000399182163251, cumulative = 0.000506955416319
DILUPBiCGStab:  Solving for omega, Initial residual = 0.0588336526102, Final residual = 0.000336592685181, No Iterations 1
linear solve omega 105816
bounding omega, min: -19.4926973177 max: 2808961.92705 average: 3355.91229003
DILUPBiCGStab:  Solving for k, Initial residual = 0.148153511501, Final residual = 0.000387539444959, No Iterations 1
linear solve k 121656
ExecutionTime = 200.55 s  ClockTime = 200 s

End

Finalising parallel run
================================================================================
hash: 03d2c9ab1644ca37adeea7f000efb400
/*---------------------------------------------------------------------------*\
| =========                 |                                                 |
| \\      /  F ield         | OpenFOAM: The Open Source CFD Toolbox           |
|  \\    /   O peration     | Version:  v2106                                 |
|   \\  /    A nd           | Website:  www.openfoam.com                      |
|    \\/     M anipulation  |                                                 |
\*---------------------------------------------------------------------------*/
Build  : f815a12bba-20210902 OPENFOAM=2106
Arch   : "LSB;label=32;scalar=64"
Exec   : simpleFoam -parallel
Date   : Jan 20 2022
Time   : 22:49:28
Host   : nla-gpu2.ianm.kit.edu
PID    : 2104045
I/O    : uncollated
Case   : /home/greole/data/code/ogl_labbook/motorcycle_resolution/resolution/Variation_mesh/Medium/Variation_matrix_solver/GMRES_BJ_HIP/Variation_mpiRank/8/base
nProcs : 8
Hosts  :
(
    (nla-gpu2.ianm.kit.edu 8)
)
Pstream initialized with:
    floatTransfer      : 0
    nProcsSimpleSum    : 0
    commsType          : nonBlocking
    polling iterations : 0
trapFpe: Floating point exception trapping enabled (FOAM_SIGFPE).
fileModificationChecking : Monitoring run-time modified files using timeStampMaster (fileModificationSkew 5, maxFileModificationPolls 20)
allowSystemOperations : Allowing user-supplied system call operations

// * * * * * * * * * * * * * * * * * * * * * * * * * * * * * * * * * * * * * //
Create time

Create mesh for time = 0


SIMPLE: no convergence criteria found. Calculations will run for 3 steps.

Reading field p

Reading field U

Reading/calculating face flux field phi

Selecting incompressible transport model Newtonian
Selecting turbulence model type RAS
Selecting RAS turbulence model kOmegaSST
Selecting patchDistMethod meshWave
RAS
{
    RASModel        kOmegaSST;
    turbulence      on;
    printCoeffs     on;
    alphaK1         0.85;
    alphaK2         1;
    alphaOmega1     0.5;
    alphaOmega2     0.856;
    gamma1          0.555555555556;
    gamma2          0.44;
    beta1           0.075;
    beta2           0.0828;
    betaStar        0.09;
    a1              0.31;
    b1              1;
    c1              10;
    F3              false;
    decayControl    false;
    kInf            0;
    omegaInf        0;
}

No MRF models present

No finite volume options present

Starting time loop

Time = 1

DILUPBiCGStab:  Solving for Ux, Initial residual = 0.0297437182706, Final residual = 0.000905864876738, No Iterations 4
DILUPBiCGStab:  Solving for Uy, Initial residual = 0.416432356952, Final residual = 0.0324299698775, No Iterations 3
DILUPBiCGStab:  Solving for Uz, Initial residual = 0.261867894562, Final residual = 0.013290606365, No Iterations 3
linear solve U 1677332
[OGL LOG][Proc: 0]global_index_init : 22361 mu s
[OGL LOG][Proc: 0]global_index_init : 4 mu s
[OGL LOG][Proc: 0]global_index_init : 5 mu s
[OGL LOG][Proc: 0]global_index_init : 4 mu s
[OGL LOG][Proc: 0]init_host_sparsity_pattern : 26287147 mu s
[OGL LOG][Proc: 0]update_host_matrix_data : 67971 mu s
[OGL LOG][Proc: 0]convert_coo_to_csr : 8199 mu s
[OGL LOG][Proc: 0]gather_global_matrix : 1 mu s
 block size 1
[OGL LOG][Proc: 0]init_precond : 40315 mu s
[OGL LOG][Proc: 0]generate_solver : 19 mu s
[OGL LOG][Proc: 0]solve : 11020039 mu s
[OGL LOG][Proc: 0]retrieve_result_from_device : 42580 mu s
BJhipGKOGMRES:  Solving for p, Initial residual = 1, Final residual = 0.00477018457304, No Iterations 202
linear solve p 46362226
time step continuity errors : sum local = 0.000389623591334, global = 5.20301640639e-05, cumulative = 5.20301640639e-05
DILUPBiCGStab:  Solving for omega, Initial residual = 0.00231428660168, Final residual = 5.61030776588e-05, No Iterations 1
linear solve omega 232702
bounding omega, min: -64338.3760673 max: 2809464.71271 average: 2480.21267719
DILUPBiCGStab:  Solving for k, Initial residual = 0.999999998679, Final residual = 0.0420464082715, No Iterations 1
linear solve k 231423
ExecutionTime = 81.1 s  ClockTime = 81 s

Time = 2

DILUPBiCGStab:  Solving for Ux, Initial residual = 0.0152191273895, Final residual = 0.00105904664906, No Iterations 3
DILUPBiCGStab:  Solving for Uy, Initial residual = 0.263888203425, Final residual = 0.0169803109829, No Iterations 3
DILUPBiCGStab:  Solving for Uz, Initial residual = 0.128523923537, Final residual = 0.00665738846703, No Iterations 3
linear solve U 1376581
[OGL LOG][Proc: 0]global_index_init : 84 mu s
[OGL LOG][Proc: 0]global_index_init : 4 mu s
[OGL LOG][Proc: 0]global_index_init : 5 mu s
[OGL LOG][Proc: 0]global_index_init : 5 mu s
[OGL LOG][Proc: 0]update_host_matrix_data : 54716 mu s
[OGL LOG][Proc: 0]gather_global_matrix : 1 mu s
 block size 1
[OGL LOG][Proc: 0]init_precond : 9961 mu s
[OGL LOG][Proc: 0]generate_solver : 2 mu s
[OGL LOG][Proc: 0]solve : 11056400 mu s
[OGL LOG][Proc: 0]retrieve_result_from_device : 40674 mu s
BJhipGKOGMRES:  Solving for p, Initial residual = 0.0353062996239, Final residual = 0.000319589941595, No Iterations 209
linear solve p 12613888
time step continuity errors : sum local = 0.0944185767924, global = 2.85941860396e-05, cumulative = 8.06243501036e-05
DILUPBiCGStab:  Solving for omega, Initial residual = 0.00170723073851, Final residual = 4.54899009793e-05, No Iterations 1
linear solve omega 239613
bounding omega, min: -189.277549005 max: 2809496.91194 average: 2818.85795911
DILUPBiCGStab:  Solving for k, Initial residual = 0.031033982282, Final residual = 0.00115999551027, No Iterations 1
linear solve k 235882
ExecutionTime = 99.85 s  ClockTime = 100 s

Time = 3

DILUPBiCGStab:  Solving for Ux, Initial residual = 0.077545496182, Final residual = 0.00662216814714, No Iterations 7
DILUPBiCGStab:  Solving for Uy, Initial residual = 0.499254118313, Final residual = 0.0401156045319, No Iterations 7
DILUPBiCGStab:  Solving for Uz, Initial residual = 0.489715491452, Final residual = 0.0293299310214, No Iterations 7
linear solve U 3212681
[OGL LOG][Proc: 0]global_index_init : 470 mu s
[OGL LOG][Proc: 0]global_index_init : 3 mu s
[OGL LOG][Proc: 0]global_index_init : 6 mu s
[OGL LOG][Proc: 0]global_index_init : 6 mu s
[OGL LOG][Proc: 0]update_host_matrix_data : 54193 mu s
[OGL LOG][Proc: 0]gather_global_matrix : 1 mu s
 block size 1
[OGL LOG][Proc: 0]init_precond : 9976 mu s
[OGL LOG][Proc: 0]generate_solver : 2 mu s
[OGL LOG][Proc: 0]solve : 8349874 mu s
[OGL LOG][Proc: 0]retrieve_result_from_device : 41514 mu s
BJhipGKOGMRES:  Solving for p, Initial residual = 0.956388810378, Final residual = 0.00463304708608, No Iterations 169
linear solve p 9907149
time step continuity errors : sum local = 3868.277948, global = -0.000132293831566, cumulative = -5.16694814626e-05
DILUPBiCGStab:  Solving for omega, Initial residual = 0.0927633876624, Final residual = 0.000360198012903, No Iterations 1
linear solve omega 164513
bounding omega, min: -12.5575918674 max: 2808965.9027 average: 3299.57251935
DILUPBiCGStab:  Solving for k, Initial residual = 0.131382488965, Final residual = 0.000276259524154, No Iterations 1
linear solve k 235717
ExecutionTime = 117.67 s  ClockTime = 118 s

End

Finalising parallel run
================================================================================
