hash: 10fb3ce21c64186932507046479843aa
/*---------------------------------------------------------------------------*\
| =========                 |                                                 |
| \\      /  F ield         | OpenFOAM: The Open Source CFD Toolbox           |
|  \\    /   O peration     | Version:  2112                                  |
|   \\  /    A nd           | Website:  www.openfoam.com                      |
|    \\/     M anipulation  |                                                 |
\*---------------------------------------------------------------------------*/
Build  : d44c8318f0-20220111 OPENFOAM=2112 version=v2112
Arch   : "LSB;label=32;scalar=64"
Exec   : icoFoam -parallel
Date   : May 25 2022
Time   : 12:12:07
Host   : hkn0716.localdomain
PID    : 510177
I/O    : uncollated
Case   : /hkfs/work/workspace/scratch/eq4036-lidDrivenCavity/simple/Variation_mesh/500/Variation_matrix_solver/CG_NoPrecond_CUDA/Variation_mpiRank_gko/2/base
nProcs : 2
Hosts  :
(
    (hkn0716.localdomain 2)
)
Pstream initialized with:
    floatTransfer      : 0
    nProcsSimpleSum    : 0
    commsType          : nonBlocking
    polling iterations : 0
trapFpe: Floating point exception trapping enabled (FOAM_SIGFPE).
fileModificationChecking : Monitoring run-time modified files using timeStampMaster (fileModificationSkew 5, maxFileModificationPolls 20)
allowSystemOperations : Allowing user-supplied system call operations

// * * * * * * * * * * * * * * * * * * * * * * * * * * * * * * * * * * * * * //
Create time

Create mesh for time = 0


PISO: Operating solver in PISO mode

Reading transportProperties

Reading field p

Reading field U

Reading/calculating face flux field phi


Starting time loop

Time = 2e-05

Courant Number mean: 0 max: 0
DILUPBiCGStab:  Solving for Ux, Initial residual = 1, Final residual = 0.00221092, No Iterations 5
DILUPBiCGStab:  Solving for Uy:  solution singularity
DILUPBiCGStab:  Solving for Uz:  solution singularity
linear solve U 41252874
Init Functor device_id_ 1 1
Init Functor device_id_ 0 1
[OGL LOG][Proc: 0]global_index_init : 7450 mu s
[OGL LOG][Proc: 0]global_index_init : 1 mu s
================================================================================
hash: a5cb03171cf41e501cd5291039435baf
/*---------------------------------------------------------------------------*\
| =========                 |                                                 |
| \\      /  F ield         | OpenFOAM: The Open Source CFD Toolbox           |
|  \\    /   O peration     | Version:  2112                                  |
|   \\  /    A nd           | Website:  www.openfoam.com                      |
|    \\/     M anipulation  |                                                 |
\*---------------------------------------------------------------------------*/
Build  : d44c8318f0-20220111 OPENFOAM=2112 version=v2112
Arch   : "LSB;label=32;scalar=64"
Exec   : icoFoam -parallel
Date   : May 25 2022
Time   : 12:12:07
Host   : hkn0614.localdomain
PID    : 1872144
I/O    : uncollated
Case   : /hkfs/work/workspace/scratch/eq4036-lidDrivenCavity/simple/Variation_mesh/500/Variation_matrix_solver/CG_NoPrecond_CUDA/Variation_mpiRank_gko/4/base
nProcs : 4
Hosts  :
(
    (hkn0614.localdomain 4)
)
Pstream initialized with:
    floatTransfer      : 0
    nProcsSimpleSum    : 0
    commsType          : nonBlocking
    polling iterations : 0
trapFpe: Floating point exception trapping enabled (FOAM_SIGFPE).
fileModificationChecking : Monitoring run-time modified files using timeStampMaster (fileModificationSkew 5, maxFileModificationPolls 20)
allowSystemOperations : Allowing user-supplied system call operations

// * * * * * * * * * * * * * * * * * * * * * * * * * * * * * * * * * * * * * //
Create time

Create mesh for time = 0


PISO: Operating solver in PISO mode

Reading transportProperties

Reading field p

Reading field U

Reading/calculating face flux field phi


Starting time loop

Time = 2e-05

Courant Number mean: 0 max: 0
DILUPBiCGStab:  Solving for Ux, Initial residual = 1, Final residual = 0.00221092, No Iterations 5
DILUPBiCGStab:  Solving for Uy:  solution singularity
DILUPBiCGStab:  Solving for Uz:  solution singularity
linear solve U 21870128
Init Functor device_id_ 1 1
Init Functor device_id_ 2 1
Init Functor device_id_ 3 1
Init Functor device_id_ 0 1
[OGL LOG][Proc: 0]global_index_init : 23 mu s
[OGL LOG][Proc: 0]global_index_init : 4 mu s
[OGL LOG][Proc: 0]init_host_sparsity_pattern : 5000362329 mu s
[OGL LOG][Proc: 0]update_host_matrix_data : 801320 mu s
[OGL LOG][Proc: 0]convert_coo_to_csr : 3304018 mu s
[OGL LOG][Proc: 0]gather_global_matrix : 4 mu s
[OGL LOG][Proc: 0]init_precond : 79 mu s
[OGL LOG][Proc: 0]generate_solver : 18 mu s
[OGL LOG][Proc: 0]solve : 30148281 mu s
[OGL LOG][Proc: 0]copy_x_back : 124054 mu s
nonecudaGKOCG:  Solving for p, Initial residual = 1, Final residual = 9.99748e-05, No Iterations 4110
linear solve p 758360206
time step continuity errors : sum local = 1.73242e-10, global = 1.81448e-22, cumulative = 1.81448e-22
[OGL LOG][Proc: 0]global_index_init : 37 mu s
[OGL LOG][Proc: 0]global_index_init : 0 mu s
[OGL LOG][Proc: 0]update_host_matrix_data : 847324 mu s
[OGL LOG][Proc: 0]gather_global_matrix : 0 mu s
[OGL LOG][Proc: 0]init_precond : 51 mu s
[OGL LOG][Proc: 0]generate_solver : 2 mu s
[OGL LOG][Proc: 0]solve : 29154085 mu s
[OGL LOG][Proc: 0]copy_x_back : 123492 mu s
nonecudaGKOCG:  Solving for p, Initial residual = 0.736007, Final residual = 7.70976e-05, No Iterations 4101
linear solve p 46331983
time step continuity errors : sum local = 1.76714e-10, global = -1.49614e-23, cumulative = 1.66487e-22
ExecutionTime = 5251.24 s  ClockTime = 5260 s

Time = 4e-05

Courant Number mean: 0.00105578 max: 0.0776342
DILUPBiCGStab:  Solving for Ux, Initial residual = 0.150267, Final residual = 0.00132891, No Iterations 5
================================================================================

============================= JOB FEEDBACK =============================

Job ID: 1747355
Cluster: hk
User/Group: eq4036/hk-project-test-fine
State: COMPLETED (exit code 0)
Partition: accelerated
Nodes: 4
Cores per node: 152
Nodelist: hkn[0404,0521-0523]
CPU Utilized: 02:30:03
CPU Efficiency: 0.65% of 16-01:04:00 core-walltime
Job Wall-clock time: 00:38:00
Starttime: Wed May 25 12:11:45 2022
Endtime: Wed May 25 12:49:45 2022
Memory Utilized: 51.30 GB
Memory Efficiency: 2.63% of 1.91 TB
Energy Consumed: 7637096 Joule / 2121.41555555556 Watthours
Average node power draw: 3349.60350877193 Watt
hash: a4753ad09c6177d23a5a9b8e7fe436d9
/*---------------------------------------------------------------------------*\
| =========                 |                                                 |
| \\      /  F ield         | OpenFOAM: The Open Source CFD Toolbox           |
|  \\    /   O peration     | Version:  2112                                  |
|   \\  /    A nd           | Website:  www.openfoam.com                      |
|    \\/     M anipulation  |                                                 |
\*---------------------------------------------------------------------------*/
Build  : d44c8318f0-20220111 OPENFOAM=2112 version=v2112
Arch   : "LSB;label=32;scalar=64"
Exec   : icoFoam -parallel
Date   : May 25 2022
Time   : 12:12:08
Host   : hkn0404.localdomain
PID    : 706095
I/O    : uncollated
Case   : /hkfs/work/workspace/scratch/eq4036-lidDrivenCavity/simple/Variation_mesh/500/Variation_matrix_solver/CG_NoPrecond_CUDA/Variation_mpiRank_gko/16/base
nProcs : 16
Hosts  :
(
    (hkn0404.localdomain 4)
    (hkn0521.localdomain 4)
    (hkn0522.localdomain 4)
    (hkn0523.localdomain 4)
)
Pstream initialized with:
    floatTransfer      : 0
    nProcsSimpleSum    : 0
    commsType          : nonBlocking
    polling iterations : 0
trapFpe: Floating point exception trapping enabled (FOAM_SIGFPE).
fileModificationChecking : Monitoring run-time modified files using timeStampMaster (fileModificationSkew 5, maxFileModificationPolls 20)
allowSystemOperations : Allowing user-supplied system call operations

// * * * * * * * * * * * * * * * * * * * * * * * * * * * * * * * * * * * * * //
Create time

Create mesh for time = 0


PISO: Operating solver in PISO mode

Reading transportProperties

Reading field p

Reading field U

Reading/calculating face flux field phi


Starting time loop

Time = 2e-05

Courant Number mean: 0 max: 0
DILUPBiCGStab:  Solving for Ux, Initial residual = 1, Final residual = 0.00248691, No Iterations 5
DILUPBiCGStab:  Solving for Uy:  solution singularity
DILUPBiCGStab:  Solving for Uz:  solution singularity
linear solve U 5384114
Init Functor device_id_ 1 1
Init Functor device_id_ 2 1
Init Functor device_id_ 3 1
Init Functor device_id_ 0 1
Init Functor device_id_ 0 1
Init Functor device_id_ 1 1
Init Functor device_id_ 2 1
Init Functor device_id_ 3 1
Init Functor device_id_ 0 1
Init Functor device_id_ 1 1
Init Functor device_id_ 2 1
Init Functor device_id_ 0 1
Init Functor device_id_ 3 1
Init Functor device_id_ 1 1
Init Functor device_id_ 2 1
Init Functor device_id_ 3 1
[OGL LOG][Proc: 0]global_index_init : 26872 mu s
[OGL LOG][Proc: 0]global_index_init : 3 mu s
[OGL LOG][Proc: 0]init_host_sparsity_pattern : 627508919 mu s
[OGL LOG][Proc: 0]update_host_matrix_data : 219079 mu s
[OGL LOG][Proc: 0]convert_coo_to_csr : 4035862 mu s
[OGL LOG][Proc: 0]gather_global_matrix : 3 mu s
[OGL LOG][Proc: 0]init_precond : 135 mu s
[OGL LOG][Proc: 0]generate_solver : 36 mu s
[OGL LOG][Proc: 0]solve : 16125083 mu s
[OGL LOG][Proc: 0]copy_x_back : 30674 mu s
nonecudaGKOCG:  Solving for p, Initial residual = 1, Final residual = 9.99391e-05, No Iterations 4109
linear solve p 959686754
time step continuity errors : sum local = 1.75919e-10, global = 1.78821e-22, cumulative = 1.78821e-22
[OGL LOG][Proc: 0]global_index_init : 19 mu s
[OGL LOG][Proc: 0]global_index_init : 2 mu s
[OGL LOG][Proc: 0]update_host_matrix_data : 215246 mu s
[OGL LOG][Proc: 0]gather_global_matrix : 0 mu s
[OGL LOG][Proc: 0]init_precond : 41 mu s
[OGL LOG][Proc: 0]generate_solver : 1 mu s
[OGL LOG][Proc: 0]solve : 15482347 mu s
[OGL LOG][Proc: 0]copy_x_back : 30831 mu s
nonecudaGKOCG:  Solving for p, Initial residual = 0.7381, Final residual = 7.69625e-05, No Iterations 4101
linear solve p 21021883
time step continuity errors : sum local = 1.78624e-10, global = 1.37801e-23, cumulative = 1.92601e-22
ExecutionTime = 1018.87 s  ClockTime = 1021 s

Time = 4e-05

Courant Number mean: 0.00105495 max: 0.0776398
DILUPBiCGStab:  Solving for Ux, Initial residual = 0.150282, Final residual = 0.00156921, No Iterations 5
DILUPBiCGStab:  Solving for Uy, Initial residual = 0.356216, Final residual = 0.00178471, No Iterations 5
DILUPBiCGStab:  Solving for Uz, Initial residual = 0.994612, Final residual = 0.00684926, No Iterations 5
linear solve U 10937340
[OGL LOG][Proc: 0]global_index_init : 16 mu s
[OGL LOG][Proc: 0]global_index_init : 2 mu s
[OGL LOG][Proc: 0]update_host_matrix_data : 213535 mu s
[OGL LOG][Proc: 0]gather_global_matrix : 0 mu s
[OGL LOG][Proc: 0]init_precond : 40 mu s
[OGL LOG][Proc: 0]generate_solver : 1 mu s
[OGL LOG][Proc: 0]solve : 15607467 mu s
[OGL LOG][Proc: 0]copy_x_back : 30530 mu s
nonecudaGKOCG:  Solving for p, Initial residual = 0.708726, Final residual = 4.38479e-05, No Iterations 4101
linear solve p 20846561
time step continuity errors : sum local = 1.19085e-10, global = 1.65895e-23, cumulative = 2.0919e-22
[OGL LOG][Proc: 0]global_index_init : 11 mu s
[OGL LOG][Proc: 0]global_index_init : 2 mu s
[OGL LOG][Proc: 0]update_host_matrix_data : 212274 mu s
[OGL LOG][Proc: 0]gather_global_matrix : 0 mu s
[OGL LOG][Proc: 0]init_precond : 48 mu s
[OGL LOG][Proc: 0]generate_solver : 2 mu s
[OGL LOG][Proc: 0]solve : 15585588 mu s
[OGL LOG][Proc: 0]copy_x_back : 30859 mu s
nonecudaGKOCG:  Solving for p, Initial residual = 0.641559, Final residual = 3.96791e-05, No Iterations 4101
linear solve p 20811692
time step continuity errors : sum local = 1.09434e-10, global = -1.12185e-23, cumulative = 1.97972e-22
ExecutionTime = 1079.11 s  ClockTime = 1081 s

Time = 6e-05

Courant Number mean: 0.00160603 max: 0.0884738
DILUPBiCGStab:  Solving for Ux, Initial residual = 0.0624053, Final residual = 0.000426753, No Iterations 5
DILUPBiCGStab:  Solving for Uy, Initial residual = 0.140393, Final residual = 0.000410306, No Iterations 5
DILUPBiCGStab:  Solving for Uz, Initial residual = 0.668897, Final residual = 0.00546529, No Iterations 5
linear solve U 17267041
[OGL LOG][Proc: 0]global_index_init : 15 mu s
[OGL LOG][Proc: 0]global_index_init : 2 mu s
[OGL LOG][Proc: 0]update_host_matrix_data : 214379 mu s
[OGL LOG][Proc: 0]gather_global_matrix : 0 mu s
[OGL LOG][Proc: 0]init_precond : 38 mu s
[OGL LOG][Proc: 0]generate_solver : 1 mu s
[OGL LOG][Proc: 0]solve : 14923970 mu s
[OGL LOG][Proc: 0]copy_x_back : 30996 mu s
nonecudaGKOCG:  Solving for p, Initial residual = 0.656934, Final residual = 7.67845e-05, No Iterations 3937
linear solve p 20181050
time step continuity errors : sum local = 1.51977e-10, global = 1.25359e-23, cumulative = 2.10508e-22
[OGL LOG][Proc: 0]global_index_init : 20 mu s
[OGL LOG][Proc: 0]global_index_init : 2 mu s
[OGL LOG][Proc: 0]update_host_matrix_data : 211454 mu s
[OGL LOG][Proc: 0]gather_global_matrix : 0 mu s
[OGL LOG][Proc: 0]init_precond : 54 mu s
[OGL LOG][Proc: 0]generate_solver : 4 mu s
[OGL LOG][Proc: 0]solve : 14986646 mu s
[OGL LOG][Proc: 0]copy_x_back : 30034 mu s
nonecudaGKOCG:  Solving for p, Initial residual = 0.603653, Final residual = 7.83543e-05, No Iterations 3926
linear solve p 20222035
time step continuity errors : sum local = 1.51648e-10, global = -3.96565e-23, cumulative = 1.70851e-22
ExecutionTime = 1144.68 s  ClockTime = 1147 s

Time = 8e-05

Courant Number mean: 0.00199174 max: 0.0913812
DILUPBiCGStab:  Solving for Ux, Initial residual = 0.0415199, Final residual = 0.000207208, No Iterations 5
DILUPBiCGStab:  Solving for Uy, Initial residual = 0.0887794, Final residual = 0.000241872, No Iterations 5
DILUPBiCGStab:  Solving for Uz, Initial residual = 0.163391, Final residual = 0.000896104, No Iterations 5
linear solve U 18641434
[OGL LOG][Proc: 0]global_index_init : 15 mu s
[OGL LOG][Proc: 0]global_index_init : 2 mu s
[OGL LOG][Proc: 0]update_host_matrix_data : 214423 mu s
[OGL LOG][Proc: 0]gather_global_matrix : 0 mu s
[OGL LOG][Proc: 0]init_precond : 40 mu s
[OGL LOG][Proc: 0]generate_solver : 2 mu s
[OGL LOG][Proc: 0]solve : 14906826 mu s
[OGL LOG][Proc: 0]copy_x_back : 30965 mu s
nonecudaGKOCG:  Solving for p, Initial residual = 0.43281, Final residual = 3.71594e-05, No Iterations 3926
linear solve p 20173265
time step continuity errors : sum local = 6.06727e-11, global = 1.87031e-23, cumulative = 1.89554e-22
[OGL LOG][Proc: 0]global_index_init : 14 mu s
[OGL LOG][Proc: 0]global_index_init : 2 mu s
[OGL LOG][Proc: 0]update_host_matrix_data : 213604 mu s
[OGL LOG][Proc: 0]gather_global_matrix : 0 mu s
[OGL LOG][Proc: 0]init_precond : 49 mu s
[OGL LOG][Proc: 0]generate_solver : 2 mu s
[OGL LOG][Proc: 0]solve : 14898405 mu s
[OGL LOG][Proc: 0]copy_x_back : 30612 mu s
nonecudaGKOCG:  Solving for p, Initial residual = 0.370477, Final residual = 3.43346e-05, No Iterations 3926
linear solve p 20136687
time step continuity errors : sum local = 5.64526e-11, global = 3.74492e-23, cumulative = 2.27003e-22
ExecutionTime = 1211.49 s  ClockTime = 1214 s

Time = 0.0001

Courant Number mean: 0.00230553 max: 0.0927867
DILUPBiCGStab:  Solving for Ux, Initial residual = 0.031834, Final residual = 0.000119226, No Iterations 5
DILUPBiCGStab:  Solving for Uy, Initial residual = 0.0636641, Final residual = 0.000138197, No Iterations 5
DILUPBiCGStab:  Solving for Uz, Initial residual = 0.0910993, Final residual = 0.000458018, No Iterations 5
linear solve U 18479406
[OGL LOG][Proc: 0]global_index_init : 13 mu s
[OGL LOG][Proc: 0]global_index_init : 2 mu s
[OGL LOG][Proc: 0]update_host_matrix_data : 212543 mu s
[OGL LOG][Proc: 0]gather_global_matrix : 0 mu s
[OGL LOG][Proc: 0]init_precond : 39 mu s
[OGL LOG][Proc: 0]generate_solver : 2 mu s
[OGL LOG][Proc: 0]solve : 14372893 mu s
[OGL LOG][Proc: 0]copy_x_back : 30808 mu s
nonecudaGKOCG:  Solving for p, Initial residual = 0.335876, Final residual = 9.77635e-05, No Iterations 3769
linear solve p 19637437
time step continuity errors : sum local = 1.32123e-10, global = -3.19442e-23, cumulative = 1.95059e-22
[OGL LOG][Proc: 0]global_index_init : 10 mu s
[OGL LOG][Proc: 0]global_index_init : 2 mu s
[OGL LOG][Proc: 0]update_host_matrix_data : 213379 mu s
[OGL LOG][Proc: 0]gather_global_matrix : 0 mu s
[OGL LOG][Proc: 0]init_precond : 49 mu s
[OGL LOG][Proc: 0]generate_solver : 2 mu s
[OGL LOG][Proc: 0]solve : 14817043 mu s
[OGL LOG][Proc: 0]copy_x_back : 29922 mu s
nonecudaGKOCG:  Solving for p, Initial residual = 0.288715, Final residual = 3.76064e-05, No Iterations 3901
linear solve p 20053119
time step continuity errors : sum local = 5.0504e-11, global = -3.58398e-23, cumulative = 1.59219e-22
ExecutionTime = 1277.56 s  ClockTime = 1280 s

Time = 0.00012

Courant Number mean: 0.00257408 max: 0.0936642
DILUPBiCGStab:  Solving for Ux, Initial residual = 0.0259433, Final residual = 8.5615e-05, No Iterations 5
DILUPBiCGStab:  Solving for Uy, Initial residual = 0.0500785, Final residual = 6.38856e-05, No Iterations 5
DILUPBiCGStab:  Solving for Uz, Initial residual = 0.0800344, Final residual = 0.000385568, No Iterations 5
linear solve U 19994117
[OGL LOG][Proc: 0]global_index_init : 17 mu s
[OGL LOG][Proc: 0]global_index_init : 2 mu s
[OGL LOG][Proc: 0]update_host_matrix_data : 214483 mu s
[OGL LOG][Proc: 0]gather_global_matrix : 0 mu s
[OGL LOG][Proc: 0]init_precond : 50 mu s
[OGL LOG][Proc: 0]generate_solver : 2 mu s
[OGL LOG][Proc: 0]solve : 14933283 mu s
[OGL LOG][Proc: 0]copy_x_back : 30411 mu s
nonecudaGKOCG:  Solving for p, Initial residual = 0.214692, Final residual = 3.54255e-05, No Iterations 3901
linear solve p 20181819
time step continuity errors : sum local = 4.55609e-11, global = 1.71995e-24, cumulative = 1.60939e-22
[OGL LOG][Proc: 0]global_index_init : 10 mu s
[OGL LOG][Proc: 0]global_index_init : 2 mu s
[OGL LOG][Proc: 0]update_host_matrix_data : 215340 mu s
[OGL LOG][Proc: 0]gather_global_matrix : 0 mu s
[OGL LOG][Proc: 0]init_precond : 51 mu s
[OGL LOG][Proc: 0]generate_solver : 2 mu s
[OGL LOG][Proc: 0]solve : 14807995 mu s
[OGL LOG][Proc: 0]copy_x_back : 31127 mu s
nonecudaGKOCG:  Solving for p, Initial residual = 0.180294, Final residual = 3.35416e-05, No Iterations 3901
linear solve p 20053224
time step continuity errors : sum local = 4.31173e-11, global = 5.42137e-23, cumulative = 2.15153e-22
ExecutionTime = 1345.85 s  ClockTime = 1348 s

Time = 0.00014

Courant Number mean: 0.00281158 max: 0.0942761
DILUPBiCGStab:  Solving for Ux, Initial residual = 0.022024, Final residual = 6.04719e-05, No Iterations 5
DILUPBiCGStab:  Solving for Uy, Initial residual = 0.0411321, Final residual = 5.04017e-05, No Iterations 5
DILUPBiCGStab:  Solving for Uz, Initial residual = 0.0666689, Final residual = 0.000235638, No Iterations 5
linear solve U 17346837
[OGL LOG][Proc: 0]global_index_init : 188 mu s
[OGL LOG][Proc: 0]global_index_init : 2 mu s
[OGL LOG][Proc: 0]update_host_matrix_data : 213344 mu s
[OGL LOG][Proc: 0]gather_global_matrix : 0 mu s
[OGL LOG][Proc: 0]init_precond : 49 mu s
[OGL LOG][Proc: 0]generate_solver : 2 mu s
[OGL LOG][Proc: 0]solve : 14236032 mu s
[OGL LOG][Proc: 0]copy_x_back : 30953 mu s
nonecudaGKOCG:  Solving for p, Initial residual = 0.156394, Final residual = 8.6314e-05, No Iterations 3745
linear solve p 19480606
time step continuity errors : sum local = 1.05312e-10, global = 3.09899e-24, cumulative = 2.18252e-22
[OGL LOG][Proc: 0]global_index_init : 9 mu s
[OGL LOG][Proc: 0]global_index_init : 1 mu s
[OGL LOG][Proc: 0]update_host_matrix_data : 214622 mu s
[OGL LOG][Proc: 0]gather_global_matrix : 0 mu s
[OGL LOG][Proc: 0]init_precond : 48 mu s
[OGL LOG][Proc: 0]generate_solver : 2 mu s
[OGL LOG][Proc: 0]solve : 14666066 mu s
[OGL LOG][Proc: 0]copy_x_back : 30576 mu s
nonecudaGKOCG:  Solving for p, Initial residual = 0.131963, Final residual = 3.64777e-05, No Iterations 3875
linear solve p 19912046
time step continuity errors : sum local = 4.44942e-11, global = -3.04762e-23, cumulative = 1.87776e-22
ExecutionTime = 1410.52 s  ClockTime = 1413 s

Time = 0.00016

Courant Number mean: 0.00302579 max: 0.0947353
DILUPBiCGStab:  Solving for Ux, Initial residual = 0.0191874, Final residual = 4.45767e-05, No Iterations 5
DILUPBiCGStab:  Solving for Uy, Initial residual = 0.0349367, Final residual = 2.62426e-05, No Iterations 5
DILUPBiCGStab:  Solving for Uz, Initial residual = 0.0591558, Final residual = 0.000150297, No Iterations 5
linear solve U 21216679
[OGL LOG][Proc: 0]global_index_init : 14 mu s
[OGL LOG][Proc: 0]global_index_init : 2 mu s
[OGL LOG][Proc: 0]update_host_matrix_data : 215081 mu s
[OGL LOG][Proc: 0]gather_global_matrix : 0 mu s
[OGL LOG][Proc: 0]init_precond : 35 mu s
[OGL LOG][Proc: 0]generate_solver : 1 mu s
[OGL LOG][Proc: 0]solve : 14806357 mu s
[OGL LOG][Proc: 0]copy_x_back : 30567 mu s
nonecudaGKOCG:  Solving for p, Initial residual = 0.104285, Final residual = 3.23567e-05, No Iterations 3876
linear solve p 20059416
time step continuity errors : sum local = 3.84746e-11, global = -2.12451e-23, cumulative = 1.66531e-22
[OGL LOG][Proc: 0]global_index_init : 13 mu s
[OGL LOG][Proc: 0]global_index_init : 2 mu s
[OGL LOG][Proc: 0]update_host_matrix_data : 213318 mu s
[OGL LOG][Proc: 0]gather_global_matrix : 0 mu s
[OGL LOG][Proc: 0]init_precond : 44 mu s
[OGL LOG][Proc: 0]generate_solver : 2 mu s
[OGL LOG][Proc: 0]solve : 14146966 mu s
[OGL LOG][Proc: 0]copy_x_back : 30886 mu s
nonecudaGKOCG:  Solving for p, Initial residual = 0.0875841, Final residual = 9.4468e-05, No Iterations 3721
linear solve p 19383217
time step continuity errors : sum local = 1.12263e-10, global = 2.31357e-23, cumulative = 1.89666e-22
ExecutionTime = 1479.03 s  ClockTime = 1482 s

Time = 0.00018

Courant Number mean: 0.00322187 max: 0.0950964
DILUPBiCGStab:  Solving for Ux, Initial residual = 0.0170206, Final residual = 3.39095e-05, No Iterations 5
DILUPBiCGStab:  Solving for Uy, Initial residual = 0.0303575, Final residual = 2.40546e-05, No Iterations 5
DILUPBiCGStab:  Solving for Uz, Initial residual = 0.0523031, Final residual = 0.000108097, No Iterations 5
linear solve U 19996422
[OGL LOG][Proc: 0]global_index_init : 12 mu s
[OGL LOG][Proc: 0]global_index_init : 2 mu s
[OGL LOG][Proc: 0]update_host_matrix_data : 210812 mu s
[OGL LOG][Proc: 0]gather_global_matrix : 0 mu s
[OGL LOG][Proc: 0]init_precond : 43 mu s
[OGL LOG][Proc: 0]generate_solver : 2 mu s
[OGL LOG][Proc: 0]solve : 14620676 mu s
[OGL LOG][Proc: 0]copy_x_back : 30865 mu s
nonecudaGKOCG:  Solving for p, Initial residual = 0.0789977, Final residual = 4.60017e-05, No Iterations 3849
linear solve p 19867962
time step continuity errors : sum local = 5.37268e-11, global = -1.11819e-22, cumulative = 7.78469e-23
[OGL LOG][Proc: 0]global_index_init : 15 mu s
[OGL LOG][Proc: 0]global_index_init : 2 mu s
[OGL LOG][Proc: 0]update_host_matrix_data : 215681 mu s
[OGL LOG][Proc: 0]gather_global_matrix : 0 mu s
[OGL LOG][Proc: 0]init_precond : 56 mu s
[OGL LOG][Proc: 0]generate_solver : 2 mu s
[OGL LOG][Proc: 0]solve : 14610584 mu s
[OGL LOG][Proc: 0]copy_x_back : 30108 mu s
nonecudaGKOCG:  Solving for p, Initial residual = 0.0666634, Final residual = 6.70752e-05, No Iterations 3826
linear solve p 19850393
time step continuity errors : sum local = 7.83467e-11, global = -3.39314e-23, cumulative = 4.39155e-23
ExecutionTime = 1546.84 s  ClockTime = 1550 s

Time = 0.0002

Courant Number mean: 0.00340325 max: 0.0953895
DILUPBiCGStab:  Solving for Ux, Initial residual = 0.0153205, Final residual = 2.67682e-05, No Iterations 5
DILUPBiCGStab:  Solving for Uy, Initial residual = 0.0268296, Final residual = 1.62766e-05, No Iterations 5
DILUPBiCGStab:  Solving for Uz, Initial residual = 0.0475679, Final residual = 8.05732e-05, No Iterations 5
linear solve U 21214563
[OGL LOG][Proc: 0]global_index_init : 12 mu s
[OGL LOG][Proc: 0]global_index_init : 2 mu s
[OGL LOG][Proc: 0]update_host_matrix_data : 213395 mu s
[OGL LOG][Proc: 0]gather_global_matrix : 0 mu s
[OGL LOG][Proc: 0]init_precond : 45 mu s
[OGL LOG][Proc: 0]generate_solver : 2 mu s
[OGL LOG][Proc: 0]solve : 14562170 mu s
[OGL LOG][Proc: 0]copy_x_back : 30469 mu s
nonecudaGKOCG:  Solving for p, Initial residual = 0.0538625, Final residual = 4.26926e-05, No Iterations 3826
linear solve p 19809759
time step continuity errors : sum local = 4.92193e-11, global = -7.05928e-23, cumulative = -2.66772e-23
[OGL LOG][Proc: 0]global_index_init : 10 mu s
[OGL LOG][Proc: 0]global_index_init : 2 mu s
[OGL LOG][Proc: 0]update_host_matrix_data : 214055 mu s
[OGL LOG][Proc: 0]gather_global_matrix : 0 mu s
[OGL LOG][Proc: 0]init_precond : 49 mu s
[OGL LOG][Proc: 0]generate_solver : 2 mu s
[OGL LOG][Proc: 0]solve : 14595993 mu s
[OGL LOG][Proc: 0]copy_x_back : 31013 mu s
nonecudaGKOCG:  Solving for p, Initial residual = 0.0462724, Final residual = 3.95969e-05, No Iterations 3826
linear solve p 19935611
time step continuity errors : sum local = 4.56561e-11, global = 5.94339e-23, cumulative = 3.27566e-23
ExecutionTime = 1615.82 s  ClockTime = 1619 s

Time = 0.00022

Courant Number mean: 0.00357244 max: 0.095634
DILUPBiCGStab:  Solving for Ux, Initial residual = 0.0139349, Final residual = 2.165e-05, No Iterations 5
DILUPBiCGStab:  Solving for Uy, Initial residual = 0.0240354, Final residual = 1.50178e-05, No Iterations 5
DILUPBiCGStab:  Solving for Uz, Initial residual = 0.04327, Final residual = 6.21349e-05, No Iterations 5
linear solve U 19928842
[OGL LOG][Proc: 0]global_index_init : 16 mu s
[OGL LOG][Proc: 0]global_index_init : 2 mu s
[OGL LOG][Proc: 0]update_host_matrix_data : 214632 mu s
[OGL LOG][Proc: 0]gather_global_matrix : 0 mu s
[OGL LOG][Proc: 0]init_precond : 49 mu s
[OGL LOG][Proc: 0]generate_solver : 2 mu s
[OGL LOG][Proc: 0]solve : 14487249 mu s
[OGL LOG][Proc: 0]copy_x_back : 30849 mu s
nonecudaGKOCG:  Solving for p, Initial residual = 0.0433725, Final residual = 4.30365e-05, No Iterations 3826
linear solve p 19731440
time step continuity errors : sum local = 4.92724e-11, global = -7.83018e-23, cumulative = -4.55451e-23
[OGL LOG][Proc: 0]global_index_init : 12 mu s
[OGL LOG][Proc: 0]global_index_init : 2 mu s
[OGL LOG][Proc: 0]update_host_matrix_data : 213486 mu s
[OGL LOG][Proc: 0]gather_global_matrix : 3 mu s
[OGL LOG][Proc: 0]init_precond : 51 mu s
[OGL LOG][Proc: 0]generate_solver : 2 mu s
[OGL LOG][Proc: 0]solve : 14536024 mu s
[OGL LOG][Proc: 0]copy_x_back : 30991 mu s
nonecudaGKOCG:  Solving for p, Initial residual = 0.0373386, Final residual = 4.1047e-05, No Iterations 3826
linear solve p 19781344
time step continuity errors : sum local = 4.69961e-11, global = -7.86555e-23, cumulative = -1.24201e-22
ExecutionTime = 1683.15 s  ClockTime = 1686 s

Time = 0.00024

Courant Number mean: 0.00373134 max: 0.0958416
DILUPBiCGStab:  Solving for Ux, Initial residual = 0.0127913, Final residual = 1.8022e-05, No Iterations 5
DILUPBiCGStab:  Solving for Uy, Initial residual = 0.0217602, Final residual = 1.21017e-05, No Iterations 5
DILUPBiCGStab:  Solving for Uz, Initial residual = 0.0397065, Final residual = 5.04448e-05, No Iterations 5
linear solve U 17434824
[OGL LOG][Proc: 0]global_index_init : 14 mu s
[OGL LOG][Proc: 0]global_index_init : 2 mu s
[OGL LOG][Proc: 0]update_host_matrix_data : 211467 mu s
[OGL LOG][Proc: 0]gather_global_matrix : 0 mu s
[OGL LOG][Proc: 0]init_precond : 51 mu s
[OGL LOG][Proc: 0]generate_solver : 2 mu s
[OGL LOG][Proc: 0]solve : 14007012 mu s
[OGL LOG][Proc: 0]copy_x_back : 30851 mu s
nonecudaGKOCG:  Solving for p, Initial residual = 0.0317814, Final residual = 9.11874e-05, No Iterations 3673
linear solve p 19256185
time step continuity errors : sum local = 1.03854e-10, global = -1.03775e-22, cumulative = -2.27976e-22
[OGL LOG][Proc: 0]global_index_init : 17 mu s
[OGL LOG][Proc: 0]global_index_init : 2 mu s
[OGL LOG][Proc: 0]update_host_matrix_data : 214714 mu s
[OGL LOG][Proc: 0]gather_global_matrix : 3 mu s
[OGL LOG][Proc: 0]init_precond : 45 mu s
[OGL LOG][Proc: 0]generate_solver : 2 mu s
[OGL LOG][Proc: 0]solve : 13975331 mu s
[OGL LOG][Proc: 0]copy_x_back : 30701 mu s
nonecudaGKOCG:  Solving for p, Initial residual = 0.0283487, Final residual = 9.10396e-05, No Iterations 3651
linear solve p 19284744
time step continuity errors : sum local = 1.03734e-10, global = 1.63515e-23, cumulative = -2.11625e-22
ExecutionTime = 1747.28 s  ClockTime = 1751 s

Time = 0.00026

Courant Number mean: 0.00388142 max: 0.096021
DILUPBiCGStab:  Solving for Ux, Initial residual = 0.0118234, Final residual = 1.52994e-05, No Iterations 5
DILUPBiCGStab:  Solving for Uy, Initial residual = 0.0198769, Final residual = 1.1138e-05, No Iterations 5
DILUPBiCGStab:  Solving for Uz, Initial residual = 0.0363212, Final residual = 4.102e-05, No Iterations 5
linear solve U 17183438
[OGL LOG][Proc: 0]global_index_init : 13 mu s
[OGL LOG][Proc: 0]global_index_init : 2 mu s
[OGL LOG][Proc: 0]update_host_matrix_data : 213793 mu s
[OGL LOG][Proc: 0]gather_global_matrix : 0 mu s
[OGL LOG][Proc: 0]init_precond : 56 mu s
[OGL LOG][Proc: 0]generate_solver : 2 mu s
[OGL LOG][Proc: 0]solve : 13957431 mu s
[OGL LOG][Proc: 0]copy_x_back : 30655 mu s
nonecudaGKOCG:  Solving for p, Initial residual = 0.0268709, Final residual = 7.76556e-05, No Iterations 3651
linear solve p 19201153
time step continuity errors : sum local = 8.81794e-11, global = -3.14559e-23, cumulative = -2.4308e-22
[OGL LOG][Proc: 0]global_index_init : 9 mu s
[OGL LOG][Proc: 0]global_index_init : 2 mu s
[OGL LOG][Proc: 0]update_host_matrix_data : 214509 mu s
[OGL LOG][Proc: 0]gather_global_matrix : 0 mu s
[OGL LOG][Proc: 0]init_precond : 48 mu s
[OGL LOG][Proc: 0]generate_solver : 2 mu s
[OGL LOG][Proc: 0]solve : 13836840 mu s
[OGL LOG][Proc: 0]copy_x_back : 30881 mu s
nonecudaGKOCG:  Solving for p, Initial residual = 0.0240274, Final residual = 7.1205e-05, No Iterations 3651
linear solve p 19082628
time step continuity errors : sum local = 8.0868e-11, global = 4.18339e-24, cumulative = -2.38897e-22
ExecutionTime = 1810.8 s  ClockTime = 1814 s

Time = 0.00028

Courant Number mean: 0.00402374 max: 0.0961779
DILUPBiCGStab:  Solving for Ux, Initial residual = 0.0109975, Final residual = 1.32785e-05, No Iterations 5
DILUPBiCGStab:  Solving for Uy, Initial residual = 0.0182885, Final residual = 9.78839e-06, No Iterations 5
DILUPBiCGStab:  Solving for Uz, Initial residual = 0.0338435, Final residual = 3.47494e-05, No Iterations 5
linear solve U 19894706
[OGL LOG][Proc: 0]global_index_init : 16 mu s
[OGL LOG][Proc: 0]global_index_init : 3 mu s
[OGL LOG][Proc: 0]update_host_matrix_data : 215489 mu s
[OGL LOG][Proc: 0]gather_global_matrix : 0 mu s
[OGL LOG][Proc: 0]init_precond : 37 mu s
[OGL LOG][Proc: 0]generate_solver : 1 mu s
[OGL LOG][Proc: 0]solve : 13834911 mu s
[OGL LOG][Proc: 0]copy_x_back : 30829 mu s
nonecudaGKOCG:  Solving for p, Initial residual = 0.0215855, Final residual = 7.90239e-05, No Iterations 3651
linear solve p 19095475
time step continuity errors : sum local = 8.96128e-11, global = 1.62815e-23, cumulative = -2.22616e-22
[OGL LOG][Proc: 0]global_index_init : 8 mu s
[OGL LOG][Proc: 0]global_index_init : 2 mu s
[OGL LOG][Proc: 0]update_host_matrix_data : 214260 mu s
[OGL LOG][Proc: 0]gather_global_matrix : 0 mu s
[OGL LOG][Proc: 0]init_precond : 54 mu s
[OGL LOG][Proc: 0]generate_solver : 2 mu s
[OGL LOG][Proc: 0]solve : 13881247 mu s
[OGL LOG][Proc: 0]copy_x_back : 30456 mu s
nonecudaGKOCG:  Solving for p, Initial residual = 0.0198775, Final residual = 7.55368e-05, No Iterations 3651
linear solve p 19133847
time step continuity errors : sum local = 8.56907e-11, global = -6.10081e-23, cumulative = -2.83624e-22
ExecutionTime = 1876.78 s  ClockTime = 1880 s

Time = 0.0003

Courant Number mean: 0.00415921 max: 0.0963166
DILUPBiCGStab:  Solving for Ux, Initial residual = 0.0102806, Final residual = 1.17291e-05, No Iterations 5
DILUPBiCGStab:  Solving for Uy, Initial residual = 0.0169333, Final residual = 9.03517e-06, No Iterations 5
DILUPBiCGStab:  Solving for Uz, Initial residual = 0.0315027, Final residual = 2.94851e-05, No Iterations 5
linear solve U 17605407
[OGL LOG][Proc: 0]global_index_init : 10 mu s
[OGL LOG][Proc: 0]global_index_init : 2 mu s
[OGL LOG][Proc: 0]update_host_matrix_data : 211410 mu s
[OGL LOG][Proc: 0]gather_global_matrix : 0 mu s
[OGL LOG][Proc: 0]init_precond : 38 mu s
[OGL LOG][Proc: 0]generate_solver : 1 mu s
[OGL LOG][Proc: 0]solve : 14115009 mu s
[OGL LOG][Proc: 0]copy_x_back : 30455 mu s
nonecudaGKOCG:  Solving for p, Initial residual = 0.0190365, Final residual = 6.94244e-05, No Iterations 3651
linear solve p 19404961
time step continuity errors : sum local = 7.8584e-11, global = -1.0431e-22, cumulative = -3.87934e-22
[OGL LOG][Proc: 0]global_index_init : 14 mu s
[OGL LOG][Proc: 0]global_index_init : 2 mu s
[OGL LOG][Proc: 0]update_host_matrix_data : 214970 mu s
[OGL LOG][Proc: 0]gather_global_matrix : 0 mu s
[OGL LOG][Proc: 0]init_precond : 43 mu s
[OGL LOG][Proc: 0]generate_solver : 2 mu s
[OGL LOG][Proc: 0]solve : 13834911 mu s
[OGL LOG][Proc: 0]copy_x_back : 31013 mu s
nonecudaGKOCG:  Solving for p, Initial residual = 0.0176269, Final residual = 6.66398e-05, No Iterations 3651
linear solve p 19079243
time step continuity errors : sum local = 7.54501e-11, global = -4.51524e-23, cumulative = -4.33086e-22
ExecutionTime = 1940.93 s  ClockTime = 1945 s

Time = 0.00032

Courant Number mean: 0.00428866 max: 0.0964405
DILUPBiCGStab:  Solving for Ux, Initial residual = 0.00965425, Final residual = 1.05293e-05, No Iterations 5
DILUPBiCGStab:  Solving for Uy, Initial residual = 0.0157617, Final residual = 8.24529e-06, No Iterations 5
DILUPBiCGStab:  Solving for Uz, Initial residual = 0.0296, Final residual = 2.54889e-05, No Iterations 5
linear solve U 21160761
[OGL LOG][Proc: 0]global_index_init : 13 mu s
[OGL LOG][Proc: 0]global_index_init : 2 mu s
[OGL LOG][Proc: 0]update_host_matrix_data : 213665 mu s
[OGL LOG][Proc: 0]gather_global_matrix : 0 mu s
[OGL LOG][Proc: 0]init_precond : 47 mu s
[OGL LOG][Proc: 0]generate_solver : 2 mu s
[OGL LOG][Proc: 0]solve : 14015922 mu s
[OGL LOG][Proc: 0]copy_x_back : 30699 mu s
nonecudaGKOCG:  Solving for p, Initial residual = 0.0163526, Final residual = 5.30732e-05, No Iterations 3651
linear solve p 19307194
time step continuity errors : sum local = 6.00769e-11, global = -6.01054e-23, cumulative = -4.93192e-22
[OGL LOG][Proc: 0]global_index_init : 17 mu s
[OGL LOG][Proc: 0]global_index_init : 2 mu s
[OGL LOG][Proc: 0]update_host_matrix_data : 214508 mu s
[OGL LOG][Proc: 0]gather_global_matrix : 0 mu s
[OGL LOG][Proc: 0]init_precond : 57 mu s
[OGL LOG][Proc: 0]generate_solver : 2 mu s
[OGL LOG][Proc: 0]solve : 13850926 mu s
[OGL LOG][Proc: 0]copy_x_back : 30441 mu s
nonecudaGKOCG:  Solving for p, Initial residual = 0.0154074, Final residual = 4.12626e-05, No Iterations 3651
linear solve p 19109071
time step continuity errors : sum local = 4.67213e-11, global = -4.46543e-23, cumulative = -5.37846e-22
ExecutionTime = 2008.57 s  ClockTime = 2012 s

Time = 0.00034

Courant Number mean: 0.00441268 max: 0.096552
DILUPBiCGStab:  Solving for Ux, Initial residual = 0.00910047, Final residual = 9.55083e-06, No Iterations 5
DILUPBiCGStab:  Solving for Uy, Initial residual = 0.01474, Final residual = 7.65813e-06, No Iterations 5
DILUPBiCGStab:  Solving for Uz, Initial residual = 0.0279055, Final residual = 2.2205e-05, No Iterations 5
linear solve U 19976983
[OGL LOG][Proc: 0]global_index_init : 17 mu s
[OGL LOG][Proc: 0]global_index_init : 2 mu s
[OGL LOG][Proc: 0]update_host_matrix_data : 214673 mu s
[OGL LOG][Proc: 0]gather_global_matrix : 0 mu s
[OGL LOG][Proc: 0]init_precond : 48 mu s
[OGL LOG][Proc: 0]generate_solver : 2 mu s
[OGL LOG][Proc: 0]solve : 13970618 mu s
[OGL LOG][Proc: 0]copy_x_back : 30777 mu s
nonecudaGKOCG:  Solving for p, Initial residual = 0.0147485, Final residual = 6.35627e-05, No Iterations 3651
linear solve p 19220542
time step continuity errors : sum local = 7.18817e-11, global = -6.12904e-24, cumulative = -5.43975e-22
[OGL LOG][Proc: 0]global_index_init : 22 mu s
[OGL LOG][Proc: 0]global_index_init : 2 mu s
[OGL LOG][Proc: 0]update_host_matrix_data : 212060 mu s
[OGL LOG][Proc: 0]gather_global_matrix : 0 mu s
[OGL LOG][Proc: 0]init_precond : 48 mu s
[OGL LOG][Proc: 0]generate_solver : 2 mu s
[OGL LOG][Proc: 0]solve : 13840649 mu s
[OGL LOG][Proc: 0]copy_x_back : 30877 mu s
nonecudaGKOCG:  Solving for p, Initial residual = 0.0139889, Final residual = 5.95663e-05, No Iterations 3651
linear solve p 19088039
time step continuity errors : sum local = 6.73798e-11, global = -7.24331e-23, cumulative = -6.16408e-22
ExecutionTime = 2074.7 s  ClockTime = 2079 s

Time = 0.00036

Courant Number mean: 0.00453175 max: 0.0966529
DILUPBiCGStab:  Solving for Ux, Initial residual = 0.00860818, Final residual = 8.74512e-06, No Iterations 5
DILUPBiCGStab:  Solving for Uy, Initial residual = 0.0138402, Final residual = 7.1102e-06, No Iterations 5
DILUPBiCGStab:  Solving for Uz, Initial residual = 0.0262609, Final residual = 1.94605e-05, No Iterations 5
linear solve U 17353565
[OGL LOG][Proc: 0]global_index_init : 11 mu s
[OGL LOG][Proc: 0]global_index_init : 3 mu s
[OGL LOG][Proc: 0]update_host_matrix_data : 210774 mu s
[OGL LOG][Proc: 0]gather_global_matrix : 0 mu s
[OGL LOG][Proc: 0]init_precond : 51 mu s
[OGL LOG][Proc: 0]generate_solver : 2 mu s
[OGL LOG][Proc: 0]solve : 13848245 mu s
[OGL LOG][Proc: 0]copy_x_back : 31085 mu s
nonecudaGKOCG:  Solving for p, Initial residual = 0.0133759, Final residual = 5.42667e-05, No Iterations 3651
linear solve p 19101322
time step continuity errors : sum local = 6.13912e-11, global = -5.49575e-23, cumulative = -6.71366e-22
[OGL LOG][Proc: 0]global_index_init : 17 mu s
[OGL LOG][Proc: 0]global_index_init : 2 mu s
[OGL LOG][Proc: 0]update_host_matrix_data : 215085 mu s
[OGL LOG][Proc: 0]gather_global_matrix : 0 mu s
[OGL LOG][Proc: 0]init_precond : 56 mu s
[OGL LOG][Proc: 0]generate_solver : 2 mu s
[OGL LOG][Proc: 0]solve : 13897754 mu s
[OGL LOG][Proc: 0]copy_x_back : 30219 mu s
nonecudaGKOCG:  Solving for p, Initial residual = 0.012807, Final residual = 5.20987e-05, No Iterations 3651
linear solve p 19160336
time step continuity errors : sum local = 5.89534e-11, global = -8.17543e-23, cumulative = -7.5312e-22
ExecutionTime = 2138.36 s  ClockTime = 2142 s

Time = 0.00038

Courant Number mean: 0.00464642 max: 0.096745
DILUPBiCGStab:  Solving for Ux, Initial residual = 0.00816669, Final residual = 8.06625e-06, No Iterations 5
DILUPBiCGStab:  Solving for Uy, Initial residual = 0.0130424, Final residual = 6.65878e-06, No Iterations 5
DILUPBiCGStab:  Solving for Uz, Initial residual = 0.0248838, Final residual = 1.72703e-05, No Iterations 5
linear solve U 17169340
[OGL LOG][Proc: 0]global_index_init : 19 mu s
[OGL LOG][Proc: 0]global_index_init : 2 mu s
[OGL LOG][Proc: 0]update_host_matrix_data : 213783 mu s
[OGL LOG][Proc: 0]gather_global_matrix : 0 mu s
[OGL LOG][Proc: 0]init_precond : 38 mu s
[OGL LOG][Proc: 0]generate_solver : 2 mu s
[OGL LOG][Proc: 0]solve : 11265960 mu s
[OGL LOG][Proc: 0]copy_x_back : 30432 mu s
nonecudaGKOCG:  Solving for p, Initial residual = 0.0123809, Final residual = 8.94486e-05, No Iterations 2921
linear solve p 16690427
time step continuity errors : sum local = 1.01627e-10, global = -8.73923e-23, cumulative = -8.40512e-22
[OGL LOG][Proc: 0]global_index_init : 14 mu s
[OGL LOG][Proc: 0]global_index_init : 2 mu s
[OGL LOG][Proc: 0]update_host_matrix_data : 213891 mu s
[OGL LOG][Proc: 0]gather_global_matrix : 0 mu s
[OGL LOG][Proc: 0]init_precond : 44 mu s
[OGL LOG][Proc: 0]generate_solver : 2 mu s
[OGL LOG][Proc: 0]solve : 9525111 mu s
[OGL LOG][Proc: 0]copy_x_back : 30880 mu s
nonecudaGKOCG:  Solving for p, Initial residual = 0.0118912, Final residual = 1.70975e-06, No Iterations 2437
linear solve p 14762853
time step continuity errors : sum local = 2.06133e-12, global = -8.93706e-23, cumulative = -9.29883e-22
ExecutionTime = 2195.05 s  ClockTime = 2199 s

Time = 0.0004

Courant Number mean: 0.00475695 max: 0.0968293
DILUPBiCGStab:  Solving for Ux, Initial residual = 0.00776875, Final residual = 7.48848e-06, No Iterations 5
DILUPBiCGStab:  Solving for Uy, Initial residual = 0.0123304, Final residual = 6.25607e-06, No Iterations 5
DILUPBiCGStab:  Solving for Uz, Initial residual = 0.0238586, Final residual = 1.58404e-05, No Iterations 5
linear solve U 19882499
[OGL LOG][Proc: 0]global_index_init : 19 mu s
[OGL LOG][Proc: 0]global_index_init : 2 mu s
[OGL LOG][Proc: 0]update_host_matrix_data : 215034 mu s
[OGL LOG][Proc: 0]gather_global_matrix : 0 mu s
[OGL LOG][Proc: 0]init_precond : 39 mu s
[OGL LOG][Proc: 0]generate_solver : 1 mu s
[OGL LOG][Proc: 0]solve : 7889253 mu s
[OGL LOG][Proc: 0]copy_x_back : 30579 mu s
nonecudaGKOCG:  Solving for p, Initial residual = 0.0113919, Final residual = 3.9305e-06, No Iterations 2038
linear solve p 13124905
time step continuity errors : sum local = 4.45587e-12, global = 6.28829e-24, cumulative = -9.23594e-22
[OGL LOG][Proc: 0]global_index_init : 15 mu s
[OGL LOG][Proc: 0]global_index_init : 2 mu s
[OGL LOG][Proc: 0]update_host_matrix_data : 214216 mu s
[OGL LOG][Proc: 0]gather_global_matrix : 0 mu s
[OGL LOG][Proc: 0]init_precond : 46 mu s
[OGL LOG][Proc: 0]generate_solver : 2 mu s
[OGL LOG][Proc: 0]solve : 6659988 mu s
[OGL LOG][Proc: 0]copy_x_back : 30863 mu s
nonecudaGKOCG:  Solving for p, Initial residual = 0.0109958, Final residual = 2.81599e-05, No Iterations 1702
linear solve p 11902317
time step continuity errors : sum local = 3.186e-11, global = -1.59431e-22, cumulative = -1.08303e-21
ExecutionTime = 2248.05 s  ClockTime = 2252 s

End

Finalising parallel run
================================================================================

============================= JOB FEEDBACK =============================

Job ID: 1747356
Cluster: hk
User/Group: eq4036/hk-project-test-fine
State: COMPLETED (exit code 0)
Partition: accelerated
Nodes: 16
Cores per node: 152
Nodelist: hkn[0602,0605-0606,0608,0717-0718,0722,0724-0726,0728-0730,0732,0734,0819]
CPU Utilized: 00:51:49
CPU Efficiency: 0.16% of 22-16:29:52 core-walltime
Job Wall-clock time: 00:13:26
Starttime: Wed May 25 12:32:40 2022
Endtime: Wed May 25 12:46:06 2022
Memory Utilized: 17.91 GB
Memory Efficiency: 0.23% of 7.63 TB
Energy Consumed: 9725143 Joule / 2701.42861111111 Watthours
Average node power draw: 12065.9342431762 Watt
hash: cd67bb0e6f2e48c7111e72c079f1d033
/*---------------------------------------------------------------------------*\
| =========                 |                                                 |
| \\      /  F ield         | OpenFOAM: The Open Source CFD Toolbox           |
|  \\    /   O peration     | Version:  2112                                  |
|   \\  /    A nd           | Website:  www.openfoam.com                      |
|    \\/     M anipulation  |                                                 |
\*---------------------------------------------------------------------------*/
Build  : d44c8318f0-20220111 OPENFOAM=2112 version=v2112
Arch   : "LSB;label=32;scalar=64"
Exec   : icoFoam -parallel
Date   : May 25 2022
Time   : 12:33:04
Host   : hkn0602.localdomain
PID    : 3732062
I/O    : uncollated
Case   : /hkfs/work/workspace/scratch/eq4036-lidDrivenCavity/simple/Variation_mesh/500/Variation_matrix_solver/CG_NoPrecond_CUDA/Variation_mpiRank_gko/64/base
nProcs : 64
Hosts  :
(
    (hkn0602.localdomain 4)
    (hkn0605.localdomain 4)
    (hkn0606.localdomain 4)
    (hkn0608.localdomain 4)
    (hkn0717.localdomain 4)
    (hkn0718.localdomain 4)
    (hkn0722.localdomain 4)
    (hkn0724.localdomain 4)
    (hkn0725.localdomain 4)
    (hkn0726.localdomain 4)
    (hkn0728.localdomain 4)
    (hkn0729.localdomain 4)
    (hkn0730.localdomain 4)
    (hkn0732.localdomain 4)
    (hkn0734.localdomain 4)
    (hkn0819.localdomain 4)
)
Pstream initialized with:
    floatTransfer      : 0
    nProcsSimpleSum    : 0
    commsType          : nonBlocking
    polling iterations : 0
trapFpe: Floating point exception trapping enabled (FOAM_SIGFPE).
fileModificationChecking : Monitoring run-time modified files using timeStampMaster (fileModificationSkew 5, maxFileModificationPolls 20)
allowSystemOperations : Allowing user-supplied system call operations

// * * * * * * * * * * * * * * * * * * * * * * * * * * * * * * * * * * * * * //
Create time

Create mesh for time = 0


PISO: Operating solver in PISO mode

Reading transportProperties

Reading field p

Reading field U

Reading/calculating face flux field phi


Starting time loop

Time = 2e-05

Courant Number mean: 0 max: 0
DILUPBiCGStab:  Solving for Ux, Initial residual = 1, Final residual = 0.00262593, No Iterations 5
DILUPBiCGStab:  Solving for Uy:  solution singularity
DILUPBiCGStab:  Solving for Uz:  solution singularity
linear solve U 1311835
Init Functor device_id_ 1 1
Init Functor device_id_ 2 1
Init Functor device_id_ 3 1
Init Functor device_id_ 0 1
Init Functor device_id_ 0 1
Init Functor device_id_ 0 1
Init Functor device_id_ 0 1
Init Functor device_id_ 0 1
Init Functor device_id_ 0 1
Init Functor device_id_ 0 1
Init Functor device_id_ 1 1
Init Functor device_id_ 0 1
Init Functor device_id_ 0 1
Init Functor device_id_ 0 1
Init Functor device_id_ 1 1
Init Functor device_id_ 0 1
Init Functor device_id_ 0 1
Init Functor device_id_ 0 1
Init Functor device_id_ 0 1
Init Functor device_id_ 0 1
Init Functor device_id_ 1 1
Init Functor device_id_ 1 1
Init Functor device_id_ 1 1
Init Functor device_id_ 1 1
Init Functor device_id_ 2 1
Init Functor device_id_ 0 1
Init Functor device_id_ 1 1
Init Functor device_id_ 1 1
Init Functor device_id_ 1 1
Init Functor device_id_ 2 1
Init Functor device_id_ 1 1
Init Functor device_id_ 1 1
Init Functor device_id_ 1 1
Init Functor device_id_ 1 1
Init Functor device_id_ 1 1
Init Functor device_id_ 2 1
Init Functor device_id_ 2 1
Init Functor device_id_ 2 1
Init Functor device_id_ 2 1
Init Functor device_id_ 3 1
Init Functor device_id_ 1 1
Init Functor device_id_ 2 1
Init Functor device_id_ 2 1
Init Functor device_id_ 2 1
Init Functor device_id_ 3 1
Init Functor device_id_ 2 1
Init Functor device_id_ 2 1
Init Functor device_id_ 2 1
Init Functor device_id_ 2 1
Init Functor device_id_ 2 1
Init Functor device_id_ 3 1
Init Functor device_id_ 3 1
Init Functor device_id_ 3 1
Init Functor device_id_ 3 1
Init Functor device_id_ 2 1
Init Functor device_id_ 3 1
Init Functor device_id_ 3 1
Init Functor device_id_ 3 1
Init Functor device_id_ 3 1
Init Functor device_id_ 3 1
Init Functor device_id_ 3 1
Init Functor device_id_ 3 1
Init Functor device_id_ 3 1
Init Functor device_id_ 3 1
[OGL LOG][Proc: 0]global_index_init : 28246 mu s
[OGL LOG][Proc: 0]global_index_init : 1756 mu s
[OGL LOG][Proc: 0]init_host_sparsity_pattern : 60018127 mu s
[OGL LOG][Proc: 0]update_host_matrix_data : 50001 mu s
[OGL LOG][Proc: 0]convert_coo_to_csr : 4194123 mu s
[OGL LOG][Proc: 0]gather_global_matrix : 6 mu s
[OGL LOG][Proc: 0]init_precond : 73 mu s
[OGL LOG][Proc: 0]generate_solver : 18 mu s
[OGL LOG][Proc: 0]solve : 13550086 mu s
[OGL LOG][Proc: 0]copy_x_back : 5657 mu s
nonecudaGKOCG:  Solving for p, Initial residual = 1, Final residual = 9.93757e-05, No Iterations 4109
linear solve p 140456956
time step continuity errors : sum local = 1.74981e-10, global = 1.77559e-22, cumulative = 1.77559e-22
[OGL LOG][Proc: 0]global_index_init : 44 mu s
[OGL LOG][Proc: 0]global_index_init : 16 mu s
[OGL LOG][Proc: 0]update_host_matrix_data : 46950 mu s
[OGL LOG][Proc: 0]gather_global_matrix : 0 mu s
[OGL LOG][Proc: 0]init_precond : 53 mu s
[OGL LOG][Proc: 0]generate_solver : 2 mu s
[OGL LOG][Proc: 0]solve : 13018045 mu s
[OGL LOG][Proc: 0]copy_x_back : 6172 mu s
nonecudaGKOCG:  Solving for p, Initial residual = 0.738139, Final residual = 7.68254e-05, No Iterations 4101
linear solve p 15259574
time step continuity errors : sum local = 1.78354e-10, global = 4.82859e-24, cumulative = 1.82387e-22
ExecutionTime = 164.65 s  ClockTime = 166 s

Time = 4e-05

Courant Number mean: 0.00105452 max: 0.0776418
DILUPBiCGStab:  Solving for Ux, Initial residual = 0.15029, Final residual = 0.00169452, No Iterations 5
DILUPBiCGStab:  Solving for Uy, Initial residual = 0.356318, Final residual = 0.0020546, No Iterations 5
DILUPBiCGStab:  Solving for Uz, Initial residual = 0.993025, Final residual = 0.00814372, No Iterations 5
linear solve U 2678562
[OGL LOG][Proc: 0]global_index_init : 43 mu s
[OGL LOG][Proc: 0]global_index_init : 16 mu s
[OGL LOG][Proc: 0]update_host_matrix_data : 55196 mu s
[OGL LOG][Proc: 0]gather_global_matrix : 0 mu s
[OGL LOG][Proc: 0]init_precond : 36 mu s
[OGL LOG][Proc: 0]generate_solver : 1 mu s
[OGL LOG][Proc: 0]solve : 13002825 mu s
[OGL LOG][Proc: 0]copy_x_back : 5620 mu s
nonecudaGKOCG:  Solving for p, Initial residual = 0.711748, Final residual = 4.36287e-05, No Iterations 4101
linear solve p 15253255
time step continuity errors : sum local = 1.19742e-10, global = -7.44016e-23, cumulative = 1.07986e-22
[OGL LOG][Proc: 0]global_index_init : 40 mu s
[OGL LOG][Proc: 0]global_index_init : 14 mu s
[OGL LOG][Proc: 0]update_host_matrix_data : 48658 mu s
[OGL LOG][Proc: 0]gather_global_matrix : 0 mu s
[OGL LOG][Proc: 0]init_precond : 40 mu s
[OGL LOG][Proc: 0]generate_solver : 2 mu s
[OGL LOG][Proc: 0]solve : 13033269 mu s
[OGL LOG][Proc: 0]copy_x_back : 5680 mu s
nonecudaGKOCG:  Solving for p, Initial residual = 0.644696, Final residual = 3.95362e-05, No Iterations 4101
linear solve p 15287135
time step continuity errors : sum local = 1.10213e-10, global = -7.03987e-24, cumulative = 1.00946e-22
ExecutionTime = 199.69 s  ClockTime = 201 s

Time = 6e-05

Courant Number mean: 0.00160553 max: 0.0884735
DILUPBiCGStab:  Solving for Ux, Initial residual = 0.0624232, Final residual = 0.000465539, No Iterations 5
DILUPBiCGStab:  Solving for Uy, Initial residual = 0.140447, Final residual = 0.000479652, No Iterations 5
DILUPBiCGStab:  Solving for Uz, Initial residual = 0.660964, Final residual = 0.00595173, No Iterations 5
linear solve U 2683672
[OGL LOG][Proc: 0]global_index_init : 38 mu s
[OGL LOG][Proc: 0]global_index_init : 22 mu s
[OGL LOG][Proc: 0]update_host_matrix_data : 55627 mu s
[OGL LOG][Proc: 0]gather_global_matrix : 0 mu s
[OGL LOG][Proc: 0]init_precond : 36 mu s
[OGL LOG][Proc: 0]generate_solver : 1 mu s
[OGL LOG][Proc: 0]solve : 12487762 mu s
[OGL LOG][Proc: 0]copy_x_back : 6010 mu s
nonecudaGKOCG:  Solving for p, Initial residual = 0.658471, Final residual = 7.61554e-05, No Iterations 3937
linear solve p 14739935
time step continuity errors : sum local = 1.51457e-10, global = -1.12528e-23, cumulative = 8.96931e-23
[OGL LOG][Proc: 0]global_index_init : 34 mu s
[OGL LOG][Proc: 0]global_index_init : 16 mu s
[OGL LOG][Proc: 0]update_host_matrix_data : 48533 mu s
[OGL LOG][Proc: 0]gather_global_matrix : 0 mu s
[OGL LOG][Proc: 0]init_precond : 41 mu s
[OGL LOG][Proc: 0]generate_solver : 2 mu s
[OGL LOG][Proc: 0]solve : 12489685 mu s
[OGL LOG][Proc: 0]copy_x_back : 5737 mu s
nonecudaGKOCG:  Solving for p, Initial residual = 0.605171, Final residual = 7.81282e-05, No Iterations 3926
linear solve p 14735574
time step continuity errors : sum local = 1.51899e-10, global = -1.75955e-23, cumulative = 7.20976e-23
ExecutionTime = 233.7 s  ClockTime = 235 s

Time = 8e-05

Courant Number mean: 0.00199121 max: 0.0913811
DILUPBiCGStab:  Solving for Ux, Initial residual = 0.0415321, Final residual = 0.000231546, No Iterations 5
DILUPBiCGStab:  Solving for Uy, Initial residual = 0.088808, Final residual = 0.000276037, No Iterations 5
DILUPBiCGStab:  Solving for Uz, Initial residual = 0.164214, Final residual = 0.000991906, No Iterations 5
linear solve U 2679992
[OGL LOG][Proc: 0]global_index_init : 37 mu s
[OGL LOG][Proc: 0]global_index_init : 23 mu s
[OGL LOG][Proc: 0]update_host_matrix_data : 55126 mu s
[OGL LOG][Proc: 0]gather_global_matrix : 0 mu s
[OGL LOG][Proc: 0]init_precond : 37 mu s
[OGL LOG][Proc: 0]generate_solver : 1 mu s
[OGL LOG][Proc: 0]solve : 12465076 mu s
[OGL LOG][Proc: 0]copy_x_back : 5991 mu s
nonecudaGKOCG:  Solving for p, Initial residual = 0.435349, Final residual = 3.83494e-05, No Iterations 3926
linear solve p 14716785
time step continuity errors : sum local = 6.29154e-11, global = -4.79188e-23, cumulative = 2.41789e-23
[OGL LOG][Proc: 0]global_index_init : 33 mu s
[OGL LOG][Proc: 0]global_index_init : 14 mu s
[OGL LOG][Proc: 0]update_host_matrix_data : 49190 mu s
[OGL LOG][Proc: 0]gather_global_matrix : 0 mu s
[OGL LOG][Proc: 0]init_precond : 53 mu s
[OGL LOG][Proc: 0]generate_solver : 2 mu s
[OGL LOG][Proc: 0]solve : 12457938 mu s
[OGL LOG][Proc: 0]copy_x_back : 6164 mu s
nonecudaGKOCG:  Solving for p, Initial residual = 0.373074, Final residual = 3.56263e-05, No Iterations 3926
linear solve p 14701889
time step continuity errors : sum local = 5.88584e-11, global = -1.14264e-23, cumulative = 1.27524e-23
ExecutionTime = 267.85 s  ClockTime = 270 s

Time = 0.0001

Courant Number mean: 0.002305 max: 0.0927866
DILUPBiCGStab:  Solving for Ux, Initial residual = 0.0318437, Final residual = 0.000137518, No Iterations 5
DILUPBiCGStab:  Solving for Uy, Initial residual = 0.0636838, Final residual = 0.00015983, No Iterations 5
DILUPBiCGStab:  Solving for Uz, Initial residual = 0.0918014, Final residual = 0.000530526, No Iterations 5
linear solve U 2669988
[OGL LOG][Proc: 0]global_index_init : 40 mu s
[OGL LOG][Proc: 0]global_index_init : 25 mu s
[OGL LOG][Proc: 0]update_host_matrix_data : 55519 mu s
[OGL LOG][Proc: 0]gather_global_matrix : 0 mu s
[OGL LOG][Proc: 0]init_precond : 34 mu s
[OGL LOG][Proc: 0]generate_solver : 1 mu s
[OGL LOG][Proc: 0]solve : 11966931 mu s
[OGL LOG][Proc: 0]copy_x_back : 5627 mu s
nonecudaGKOCG:  Solving for p, Initial residual = 0.338112, Final residual = 9.73048e-05, No Iterations 3769
linear solve p 14218261
time step continuity errors : sum local = 1.31999e-10, global = -8.02605e-23, cumulative = -6.75081e-23
[OGL LOG][Proc: 0]global_index_init : 35 mu s
[OGL LOG][Proc: 0]global_index_init : 26 mu s
[OGL LOG][Proc: 0]update_host_matrix_data : 48931 mu s
[OGL LOG][Proc: 0]gather_global_matrix : 0 mu s
[OGL LOG][Proc: 0]init_precond : 44 mu s
[OGL LOG][Proc: 0]generate_solver : 2 mu s
[OGL LOG][Proc: 0]solve : 12383649 mu s
[OGL LOG][Proc: 0]copy_x_back : 5655 mu s
nonecudaGKOCG:  Solving for p, Initial residual = 0.291096, Final residual = 3.73304e-05, No Iterations 3901
linear solve p 14629262
time step continuity errors : sum local = 5.03142e-11, global = 5.7405e-24, cumulative = -6.17676e-23
ExecutionTime = 301.22 s  ClockTime = 303 s

Time = 0.00012

Courant Number mean: 0.00257356 max: 0.0936641
DILUPBiCGStab:  Solving for Ux, Initial residual = 0.0259512, Final residual = 9.70378e-05, No Iterations 5
DILUPBiCGStab:  Solving for Uy, Initial residual = 0.0500929, Final residual = 7.66948e-05, No Iterations 5
DILUPBiCGStab:  Solving for Uz, Initial residual = 0.0805299, Final residual = 0.00044909, No Iterations 5
linear solve U 2671888
[OGL LOG][Proc: 0]global_index_init : 38 mu s
[OGL LOG][Proc: 0]global_index_init : 13 mu s
[OGL LOG][Proc: 0]update_host_matrix_data : 55365 mu s
[OGL LOG][Proc: 0]gather_global_matrix : 0 mu s
[OGL LOG][Proc: 0]init_precond : 40 mu s
[OGL LOG][Proc: 0]generate_solver : 1 mu s
[OGL LOG][Proc: 0]solve : 12383295 mu s
[OGL LOG][Proc: 0]copy_x_back : 5951 mu s
nonecudaGKOCG:  Solving for p, Initial residual = 0.216383, Final residual = 3.55843e-05, No Iterations 3901
linear solve p 14624245
time step continuity errors : sum local = 4.58726e-11, global = 4.43562e-24, cumulative = -5.73319e-23
[OGL LOG][Proc: 0]global_index_init : 44 mu s
[OGL LOG][Proc: 0]global_index_init : 23 mu s
[OGL LOG][Proc: 0]update_host_matrix_data : 49052 mu s
[OGL LOG][Proc: 0]gather_global_matrix : 0 mu s
[OGL LOG][Proc: 0]init_precond : 45 mu s
[OGL LOG][Proc: 0]generate_solver : 2 mu s
[OGL LOG][Proc: 0]solve : 12388668 mu s
[OGL LOG][Proc: 0]copy_x_back : 5674 mu s
nonecudaGKOCG:  Solving for p, Initial residual = 0.181984, Final residual = 3.37224e-05, No Iterations 3901
linear solve p 14627991
time step continuity errors : sum local = 4.34519e-11, global = -7.79965e-23, cumulative = -1.35328e-22
ExecutionTime = 334.98 s  ClockTime = 337 s

Time = 0.00014

Courant Number mean: 0.00281107 max: 0.094276
DILUPBiCGStab:  Solving for Ux, Initial residual = 0.0220305, Final residual = 6.86881e-05, No Iterations 5
DILUPBiCGStab:  Solving for Uy, Initial residual = 0.0411428, Final residual = 6.09961e-05, No Iterations 5
DILUPBiCGStab:  Solving for Uz, Initial residual = 0.0670131, Final residual = 0.000289334, No Iterations 5
linear solve U 2693824
[OGL LOG][Proc: 0]global_index_init : 37 mu s
[OGL LOG][Proc: 0]global_index_init : 15 mu s
[OGL LOG][Proc: 0]update_host_matrix_data : 55097 mu s
[OGL LOG][Proc: 0]gather_global_matrix : 0 mu s
[OGL LOG][Proc: 0]init_precond : 36 mu s
[OGL LOG][Proc: 0]generate_solver : 1 mu s
[OGL LOG][Proc: 0]solve : 11919451 mu s
[OGL LOG][Proc: 0]copy_x_back : 5663 mu s
nonecudaGKOCG:  Solving for p, Initial residual = 0.157813, Final residual = 8.39084e-05, No Iterations 3745
linear solve p 14160187
time step continuity errors : sum local = 1.02576e-10, global = -5.05606e-23, cumulative = -1.85889e-22
[OGL LOG][Proc: 0]global_index_init : 36 mu s
[OGL LOG][Proc: 0]global_index_init : 15 mu s
[OGL LOG][Proc: 0]update_host_matrix_data : 48913 mu s
[OGL LOG][Proc: 0]gather_global_matrix : 0 mu s
[OGL LOG][Proc: 0]init_precond : 48 mu s
[OGL LOG][Proc: 0]generate_solver : 2 mu s
[OGL LOG][Proc: 0]solve : 12297655 mu s
[OGL LOG][Proc: 0]copy_x_back : 5983 mu s
nonecudaGKOCG:  Solving for p, Initial residual = 0.133441, Final residual = 3.51506e-05, No Iterations 3875
linear solve p 14533028
time step continuity errors : sum local = 4.29555e-11, global = -5.80663e-23, cumulative = -2.43955e-22
ExecutionTime = 368.22 s  ClockTime = 370 s

Time = 0.00016

Courant Number mean: 0.00302529 max: 0.0947352
DILUPBiCGStab:  Solving for Ux, Initial residual = 0.0191928, Final residual = 5.08633e-05, No Iterations 5
DILUPBiCGStab:  Solving for Uy, Initial residual = 0.034945, Final residual = 4.04411e-05, No Iterations 5
DILUPBiCGStab:  Solving for Uz, Initial residual = 0.0594254, Final residual = 0.000187701, No Iterations 5
linear solve U 2675464
[OGL LOG][Proc: 0]global_index_init : 62 mu s
[OGL LOG][Proc: 0]global_index_init : 17 mu s
[OGL LOG][Proc: 0]update_host_matrix_data : 55467 mu s
[OGL LOG][Proc: 0]gather_global_matrix : 0 mu s
[OGL LOG][Proc: 0]init_precond : 36 mu s
[OGL LOG][Proc: 0]generate_solver : 1 mu s
[OGL LOG][Proc: 0]solve : 12308281 mu s
[OGL LOG][Proc: 0]copy_x_back : 5693 mu s
nonecudaGKOCG:  Solving for p, Initial residual = 0.105281, Final residual = 3.25574e-05, No Iterations 3876
linear solve p 14631595
time step continuity errors : sum local = 3.87627e-11, global = -1.46582e-22, cumulative = -3.90538e-22
[OGL LOG][Proc: 0]global_index_init : 46 mu s
[OGL LOG][Proc: 0]global_index_init : 7 mu s
[OGL LOG][Proc: 0]update_host_matrix_data : 48913 mu s
[OGL LOG][Proc: 0]gather_global_matrix : 0 mu s
[OGL LOG][Proc: 0]init_precond : 46 mu s
[OGL LOG][Proc: 0]generate_solver : 2 mu s
[OGL LOG][Proc: 0]solve : 11816286 mu s
[OGL LOG][Proc: 0]copy_x_back : 5627 mu s
nonecudaGKOCG:  Solving for p, Initial residual = 0.0885941, Final residual = 9.86286e-05, No Iterations 3721
linear solve p 14053440
time step continuity errors : sum local = 1.17355e-10, global = -5.54697e-23, cumulative = -4.46007e-22
ExecutionTime = 401.6 s  ClockTime = 404 s

Time = 0.00018

Courant Number mean: 0.00322138 max: 0.0950963
DILUPBiCGStab:  Solving for Ux, Initial residual = 0.0170251, Final residual = 3.90619e-05, No Iterations 5
DILUPBiCGStab:  Solving for Uy, Initial residual = 0.0303641, Final residual = 3.70577e-05, No Iterations 5
DILUPBiCGStab:  Solving for Uz, Initial residual = 0.0524873, Final residual = 0.000140864, No Iterations 5
linear solve U 2878237
[OGL LOG][Proc: 0]global_index_init : 38 mu s
[OGL LOG][Proc: 0]global_index_init : 10 mu s
[OGL LOG][Proc: 0]update_host_matrix_data : 55427 mu s
[OGL LOG][Proc: 0]gather_global_matrix : 0 mu s
[OGL LOG][Proc: 0]init_precond : 33 mu s
[OGL LOG][Proc: 0]generate_solver : 1 mu s
[OGL LOG][Proc: 0]solve : 12211972 mu s
[OGL LOG][Proc: 0]copy_x_back : 5976 mu s
nonecudaGKOCG:  Solving for p, Initial residual = 0.0799736, Final residual = 4.62697e-05, No Iterations 3849
linear solve p 14460171
time step continuity errors : sum local = 5.41067e-11, global = -1.3912e-22, cumulative = -5.85127e-22
[OGL LOG][Proc: 0]global_index_init : 40 mu s
[OGL LOG][Proc: 0]global_index_init : 7 mu s
[OGL LOG][Proc: 0]update_host_matrix_data : 48820 mu s
[OGL LOG][Proc: 0]gather_global_matrix : 0 mu s
[OGL LOG][Proc: 0]init_precond : 49 mu s
[OGL LOG][Proc: 0]generate_solver : 2 mu s
[OGL LOG][Proc: 0]solve : 12152469 mu s
[OGL LOG][Proc: 0]copy_x_back : 5730 mu s
nonecudaGKOCG:  Solving for p, Initial residual = 0.0677241, Final residual = 6.72577e-05, No Iterations 3826
linear solve p 14392729
time step continuity errors : sum local = 7.86556e-11, global = -7.87987e-24, cumulative = -5.93007e-22
ExecutionTime = 435.18 s  ClockTime = 437 s

Time = 0.0002

Courant Number mean: 0.00340278 max: 0.0953894
DILUPBiCGStab:  Solving for Ux, Initial residual = 0.0153243, Final residual = 3.13272e-05, No Iterations 5
DILUPBiCGStab:  Solving for Uy, Initial residual = 0.026835, Final residual = 3.04518e-05, No Iterations 5
DILUPBiCGStab:  Solving for Uz, Initial residual = 0.047731, Final residual = 0.000104813, No Iterations 5
linear solve U 2658726
[OGL LOG][Proc: 0]global_index_init : 40 mu s
[OGL LOG][Proc: 0]global_index_init : 14 mu s
[OGL LOG][Proc: 0]update_host_matrix_data : 55727 mu s
[OGL LOG][Proc: 0]gather_global_matrix : 0 mu s
[OGL LOG][Proc: 0]init_precond : 35 mu s
[OGL LOG][Proc: 0]generate_solver : 1 mu s
[OGL LOG][Proc: 0]solve : 12150497 mu s
[OGL LOG][Proc: 0]copy_x_back : 6082 mu s
nonecudaGKOCG:  Solving for p, Initial residual = 0.05485, Final residual = 4.22753e-05, No Iterations 3826
linear solve p 14392792
time step continuity errors : sum local = 4.87949e-11, global = -2.30938e-23, cumulative = -6.16101e-22
[OGL LOG][Proc: 0]global_index_init : 34 mu s
[OGL LOG][Proc: 0]global_index_init : 21 mu s
[OGL LOG][Proc: 0]update_host_matrix_data : 48916 mu s
[OGL LOG][Proc: 0]gather_global_matrix : 0 mu s
[OGL LOG][Proc: 0]init_precond : 52 mu s
[OGL LOG][Proc: 0]generate_solver : 2 mu s
[OGL LOG][Proc: 0]solve : 12159971 mu s
[OGL LOG][Proc: 0]copy_x_back : 6140 mu s
nonecudaGKOCG:  Solving for p, Initial residual = 0.0473107, Final residual = 3.90987e-05, No Iterations 3826
linear solve p 14395064
time step continuity errors : sum local = 4.51342e-11, global = -2.91081e-23, cumulative = -6.45209e-22
ExecutionTime = 468.48 s  ClockTime = 471 s

Time = 0.00022

Courant Number mean: 0.00357199 max: 0.0956339
DILUPBiCGStab:  Solving for Ux, Initial residual = 0.0139383, Final residual = 2.57637e-05, No Iterations 5
DILUPBiCGStab:  Solving for Uy, Initial residual = 0.0240399, Final residual = 2.79115e-05, No Iterations 5
DILUPBiCGStab:  Solving for Uz, Initial residual = 0.043403, Final residual = 8.34724e-05, No Iterations 5
linear solve U 2665043
[OGL LOG][Proc: 0]global_index_init : 39 mu s
[OGL LOG][Proc: 0]global_index_init : 5 mu s
[OGL LOG][Proc: 0]update_host_matrix_data : 55452 mu s
[OGL LOG][Proc: 0]gather_global_matrix : 0 mu s
[OGL LOG][Proc: 0]init_precond : 34 mu s
[OGL LOG][Proc: 0]generate_solver : 1 mu s
[OGL LOG][Proc: 0]solve : 12144404 mu s
[OGL LOG][Proc: 0]copy_x_back : 5558 mu s
nonecudaGKOCG:  Solving for p, Initial residual = 0.0442382, Final residual = 4.32593e-05, No Iterations 3826
linear solve p 14390127
time step continuity errors : sum local = 4.95781e-11, global = 1.20083e-23, cumulative = -6.33201e-22
[OGL LOG][Proc: 0]global_index_init : 42 mu s
[OGL LOG][Proc: 0]global_index_init : 9 mu s
[OGL LOG][Proc: 0]update_host_matrix_data : 48978 mu s
[OGL LOG][Proc: 0]gather_global_matrix : 0 mu s
[OGL LOG][Proc: 0]init_precond : 45 mu s
[OGL LOG][Proc: 0]generate_solver : 2 mu s
[OGL LOG][Proc: 0]solve : 12179827 mu s
[OGL LOG][Proc: 0]copy_x_back : 5652 mu s
nonecudaGKOCG:  Solving for p, Initial residual = 0.0382835, Final residual = 4.10328e-05, No Iterations 3826
linear solve p 14412368
time step continuity errors : sum local = 4.70276e-11, global = -6.52622e-23, cumulative = -6.98463e-22
ExecutionTime = 501.79 s  ClockTime = 504 s

Time = 0.00024

Courant Number mean: 0.0037309 max: 0.0958416
DILUPBiCGStab:  Solving for Ux, Initial residual = 0.0127943, Final residual = 2.1853e-05, No Iterations 5
DILUPBiCGStab:  Solving for Uy, Initial residual = 0.021764, Final residual = 2.45047e-05, No Iterations 5
DILUPBiCGStab:  Solving for Uz, Initial residual = 0.039819, Final residual = 6.75173e-05, No Iterations 5
linear solve U 2676315
[OGL LOG][Proc: 0]global_index_init : 36 mu s
[OGL LOG][Proc: 0]global_index_init : 24 mu s
[OGL LOG][Proc: 0]update_host_matrix_data : 55348 mu s
[OGL LOG][Proc: 0]gather_global_matrix : 0 mu s
[OGL LOG][Proc: 0]init_precond : 35 mu s
[OGL LOG][Proc: 0]generate_solver : 1 mu s
[OGL LOG][Proc: 0]solve : 11663110 mu s
[OGL LOG][Proc: 0]copy_x_back : 6041 mu s
nonecudaGKOCG:  Solving for p, Initial residual = 0.032802, Final residual = 9.11081e-05, No Iterations 3673
linear solve p 13909375
time step continuity errors : sum local = 1.0388e-10, global = -4.32601e-23, cumulative = -7.41723e-22
[OGL LOG][Proc: 0]global_index_init : 36 mu s
[OGL LOG][Proc: 0]global_index_init : 18 mu s
[OGL LOG][Proc: 0]update_host_matrix_data : 48791 mu s
[OGL LOG][Proc: 0]gather_global_matrix : 0 mu s
[OGL LOG][Proc: 0]init_precond : 47 mu s
[OGL LOG][Proc: 0]generate_solver : 2 mu s
[OGL LOG][Proc: 0]solve : 11603232 mu s
[OGL LOG][Proc: 0]copy_x_back : 5781 mu s
nonecudaGKOCG:  Solving for p, Initial residual = 0.0293964, Final residual = 9.11323e-05, No Iterations 3651
linear solve p 14041298
time step continuity errors : sum local = 1.03957e-10, global = -1.14387e-22, cumulative = -8.5611e-22
ExecutionTime = 534.26 s  ClockTime = 536 s

Time = 0.00026

Courant Number mean: 0.00388099 max: 0.096021
DILUPBiCGStab:  Solving for Ux, Initial residual = 0.011826, Final residual = 1.89169e-05, No Iterations 5
DILUPBiCGStab:  Solving for Uy, Initial residual = 0.0198802, Final residual = 2.24629e-05, No Iterations 5
DILUPBiCGStab:  Solving for Uz, Initial residual = 0.0364185, Final residual = 5.5987e-05, No Iterations 5
linear solve U 2661139
[OGL LOG][Proc: 0]global_index_init : 43 mu s
[OGL LOG][Proc: 0]global_index_init : 17 mu s
[OGL LOG][Proc: 0]update_host_matrix_data : 55614 mu s
[OGL LOG][Proc: 0]gather_global_matrix : 0 mu s
[OGL LOG][Proc: 0]init_precond : 34 mu s
[OGL LOG][Proc: 0]generate_solver : 1 mu s
[OGL LOG][Proc: 0]solve : 11633302 mu s
[OGL LOG][Proc: 0]copy_x_back : 6236 mu s
nonecudaGKOCG:  Solving for p, Initial residual = 0.0277276, Final residual = 7.66645e-05, No Iterations 3651
linear solve p 13875494
time step continuity errors : sum local = 8.71379e-11, global = -5.67341e-23, cumulative = -9.12844e-22
[OGL LOG][Proc: 0]global_index_init : 29 mu s
[OGL LOG][Proc: 0]global_index_init : 21 mu s
[OGL LOG][Proc: 0]update_host_matrix_data : 48735 mu s
[OGL LOG][Proc: 0]gather_global_matrix : 0 mu s
[OGL LOG][Proc: 0]init_precond : 44 mu s
[OGL LOG][Proc: 0]generate_solver : 2 mu s
[OGL LOG][Proc: 0]solve : 11595484 mu s
[OGL LOG][Proc: 0]copy_x_back : 6118 mu s
nonecudaGKOCG:  Solving for p, Initial residual = 0.0249415, Final residual = 6.92633e-05, No Iterations 3651
linear solve p 13832207
time step continuity errors : sum local = 7.8738e-11, global = -7.23043e-23, cumulative = -9.85148e-22
ExecutionTime = 566.57 s  ClockTime = 569 s

Time = 0.00028

Courant Number mean: 0.00402331 max: 0.0961779
DILUPBiCGStab:  Solving for Ux, Initial residual = 0.0109998, Final residual = 1.67337e-05, No Iterations 5
DILUPBiCGStab:  Solving for Uy, Initial residual = 0.0182914, Final residual = 2.03779e-05, No Iterations 5
DILUPBiCGStab:  Solving for Uz, Initial residual = 0.0339423, Final residual = 4.77076e-05, No Iterations 5
linear solve U 2666101
[OGL LOG][Proc: 0]global_index_init : 36 mu s
[OGL LOG][Proc: 0]global_index_init : 8 mu s
[OGL LOG][Proc: 0]update_host_matrix_data : 55629 mu s
[OGL LOG][Proc: 0]gather_global_matrix : 0 mu s
[OGL LOG][Proc: 0]init_precond : 39 mu s
[OGL LOG][Proc: 0]generate_solver : 1 mu s
[OGL LOG][Proc: 0]solve : 11599277 mu s
[OGL LOG][Proc: 0]copy_x_back : 5594 mu s
nonecudaGKOCG:  Solving for p, Initial residual = 0.0224992, Final residual = 7.94849e-05, No Iterations 3651
linear solve p 13845304
time step continuity errors : sum local = 9.02257e-11, global = -6.35014e-23, cumulative = -1.04865e-21
[OGL LOG][Proc: 0]global_index_init : 41 mu s
[OGL LOG][Proc: 0]global_index_init : 10 mu s
[OGL LOG][Proc: 0]update_host_matrix_data : 48676 mu s
[OGL LOG][Proc: 0]gather_global_matrix : 0 mu s
[OGL LOG][Proc: 0]init_precond : 45 mu s
[OGL LOG][Proc: 0]generate_solver : 2 mu s
[OGL LOG][Proc: 0]solve : 11596863 mu s
[OGL LOG][Proc: 0]copy_x_back : 5626 mu s
nonecudaGKOCG:  Solving for p, Initial residual = 0.0208141, Final residual = 7.59347e-05, No Iterations 3651
linear solve p 13828282
time step continuity errors : sum local = 8.62287e-11, global = -3.20303e-23, cumulative = -1.08068e-21
ExecutionTime = 598.77 s  ClockTime = 601 s

Time = 0.0003

Courant Number mean: 0.00415879 max: 0.0963166
DILUPBiCGStab:  Solving for Ux, Initial residual = 0.0102827, Final residual = 1.49942e-05, No Iterations 5
DILUPBiCGStab:  Solving for Uy, Initial residual = 0.0169359, Final residual = 1.88445e-05, No Iterations 5
DILUPBiCGStab:  Solving for Uz, Initial residual = 0.0315801, Final residual = 4.10761e-05, No Iterations 5
linear solve U 2659631
[OGL LOG][Proc: 0]global_index_init : 36 mu s
[OGL LOG][Proc: 0]global_index_init : 19 mu s
[OGL LOG][Proc: 0]update_host_matrix_data : 55485 mu s
[OGL LOG][Proc: 0]gather_global_matrix : 0 mu s
[OGL LOG][Proc: 0]init_precond : 32 mu s
[OGL LOG][Proc: 0]generate_solver : 1 mu s
[OGL LOG][Proc: 0]solve : 11597258 mu s
[OGL LOG][Proc: 0]copy_x_back : 6010 mu s
nonecudaGKOCG:  Solving for p, Initial residual = 0.0198426, Final residual = 6.98018e-05, No Iterations 3651
linear solve p 13842468
time step continuity errors : sum local = 7.90818e-11, global = 9.82949e-24, cumulative = -1.07085e-21
[OGL LOG][Proc: 0]global_index_init : 36 mu s
[OGL LOG][Proc: 0]global_index_init : 13 mu s
[OGL LOG][Proc: 0]update_host_matrix_data : 48717 mu s
[OGL LOG][Proc: 0]gather_global_matrix : 0 mu s
[OGL LOG][Proc: 0]init_precond : 37 mu s
[OGL LOG][Proc: 0]generate_solver : 1 mu s
[OGL LOG][Proc: 0]solve : 11597751 mu s
[OGL LOG][Proc: 0]copy_x_back : 5730 mu s
nonecudaGKOCG:  Solving for p, Initial residual = 0.0184778, Final residual = 6.68839e-05, No Iterations 3651
linear solve p 13834981
time step continuity errors : sum local = 7.57937e-11, global = -1.17125e-22, cumulative = -1.18798e-21
ExecutionTime = 630.95 s  ClockTime = 633 s

Time = 0.00032

Courant Number mean: 0.00428826 max: 0.0964405
DILUPBiCGStab:  Solving for Ux, Initial residual = 0.00965619, Final residual = 1.36013e-05, No Iterations 5
DILUPBiCGStab:  Solving for Uy, Initial residual = 0.0157639, Final residual = 1.7427e-05, No Iterations 5
DILUPBiCGStab:  Solving for Uz, Initial residual = 0.0296697, Final residual = 3.59287e-05, No Iterations 5
linear solve U 2657353
[OGL LOG][Proc: 0]global_index_init : 29 mu s
[OGL LOG][Proc: 0]global_index_init : 9 mu s
[OGL LOG][Proc: 0]update_host_matrix_data : 55607 mu s
[OGL LOG][Proc: 0]gather_global_matrix : 0 mu s
[OGL LOG][Proc: 0]init_precond : 33 mu s
[OGL LOG][Proc: 0]generate_solver : 1 mu s
[OGL LOG][Proc: 0]solve : 11629147 mu s
[OGL LOG][Proc: 0]copy_x_back : 5600 mu s
nonecudaGKOCG:  Solving for p, Initial residual = 0.0172265, Final residual = 4.73299e-05, No Iterations 3651
linear solve p 13872652
time step continuity errors : sum local = 5.3626e-11, global = -1.46618e-22, cumulative = -1.33459e-21
[OGL LOG][Proc: 0]global_index_init : 39 mu s
[OGL LOG][Proc: 0]global_index_init : 16 mu s
[OGL LOG][Proc: 0]update_host_matrix_data : 48697 mu s
[OGL LOG][Proc: 0]gather_global_matrix : 0 mu s
[OGL LOG][Proc: 0]init_precond : 51 mu s
[OGL LOG][Proc: 0]generate_solver : 2 mu s
[OGL LOG][Proc: 0]solve : 11603552 mu s
[OGL LOG][Proc: 0]copy_x_back : 5590 mu s
nonecudaGKOCG:  Solving for p, Initial residual = 0.0162976, Final residual = 2.85598e-05, No Iterations 3651
linear solve p 13839168
time step continuity errors : sum local = 3.23683e-11, global = -3.20174e-23, cumulative = -1.36661e-21
ExecutionTime = 663.18 s  ClockTime = 666 s

Time = 0.00034

Courant Number mean: 0.00441228 max: 0.096552
DILUPBiCGStab:  Solving for Ux, Initial residual = 0.00910224, Final residual = 1.24409e-05, No Iterations 5
DILUPBiCGStab:  Solving for Uy, Initial residual = 0.014742, Final residual = 1.62696e-05, No Iterations 5
DILUPBiCGStab:  Solving for Uz, Initial residual = 0.0280268, Final residual = 3.1815e-05, No Iterations 5
linear solve U 2669209
[OGL LOG][Proc: 0]global_index_init : 36 mu s
[OGL LOG][Proc: 0]global_index_init : 13 mu s
[OGL LOG][Proc: 0]update_host_matrix_data : 55874 mu s
[OGL LOG][Proc: 0]gather_global_matrix : 0 mu s
[OGL LOG][Proc: 0]init_precond : 35 mu s
[OGL LOG][Proc: 0]generate_solver : 1 mu s
[OGL LOG][Proc: 0]solve : 11628234 mu s
[OGL LOG][Proc: 0]copy_x_back : 6084 mu s
nonecudaGKOCG:  Solving for p, Initial residual = 0.0154921, Final residual = 6.54005e-05, No Iterations 3651
linear solve p 13873989
time step continuity errors : sum local = 7.40195e-11, global = -3.14082e-23, cumulative = -1.39802e-21
[OGL LOG][Proc: 0]global_index_init : 39 mu s
[OGL LOG][Proc: 0]global_index_init : 13 mu s
[OGL LOG][Proc: 0]update_host_matrix_data : 49108 mu s
[OGL LOG][Proc: 0]gather_global_matrix : 0 mu s
[OGL LOG][Proc: 0]init_precond : 47 mu s
[OGL LOG][Proc: 0]generate_solver : 2 mu s
[OGL LOG][Proc: 0]solve : 11602263 mu s
[OGL LOG][Proc: 0]copy_x_back : 5692 mu s
nonecudaGKOCG:  Solving for p, Initial residual = 0.0147537, Final residual = 6.12847e-05, No Iterations 3651
linear solve p 13837213
time step continuity errors : sum local = 6.93792e-11, global = -6.24213e-23, cumulative = -1.46044e-21
ExecutionTime = 695.39 s  ClockTime = 698 s

Time = 0.00036

Courant Number mean: 0.00453136 max: 0.096653
DILUPBiCGStab:  Solving for Ux, Initial residual = 0.0086098, Final residual = 1.14778e-05, No Iterations 5
DILUPBiCGStab:  Solving for Uy, Initial residual = 0.013842, Final residual = 1.52285e-05, No Iterations 5
DILUPBiCGStab:  Solving for Uz, Initial residual = 0.0263187, Final residual = 2.82257e-05, No Iterations 5
linear solve U 2656124
[OGL LOG][Proc: 0]global_index_init : 32 mu s
[OGL LOG][Proc: 0]global_index_init : 11 mu s
[OGL LOG][Proc: 0]update_host_matrix_data : 55447 mu s
[OGL LOG][Proc: 0]gather_global_matrix : 0 mu s
[OGL LOG][Proc: 0]init_precond : 41 mu s
[OGL LOG][Proc: 0]generate_solver : 2 mu s
[OGL LOG][Proc: 0]solve : 11718485 mu s
[OGL LOG][Proc: 0]copy_x_back : 6032 mu s
nonecudaGKOCG:  Solving for p, Initial residual = 0.0142027, Final residual = 5.55845e-05, No Iterations 3651
linear solve p 14042082
time step continuity errors : sum local = 6.29368e-11, global = -8.66781e-23, cumulative = -1.54712e-21
[OGL LOG][Proc: 0]global_index_init : 36 mu s
[OGL LOG][Proc: 0]global_index_init : 11 mu s
[OGL LOG][Proc: 0]update_host_matrix_data : 49131 mu s
[OGL LOG][Proc: 0]gather_global_matrix : 0 mu s
[OGL LOG][Proc: 0]init_precond : 41 mu s
[OGL LOG][Proc: 0]generate_solver : 2 mu s
[OGL LOG][Proc: 0]solve : 11596209 mu s
[OGL LOG][Proc: 0]copy_x_back : 6243 mu s
nonecudaGKOCG:  Solving for p, Initial residual = 0.0136408, Final residual = 5.36147e-05, No Iterations 3651
linear solve p 13834786
time step continuity errors : sum local = 6.07216e-11, global = -7.66414e-23, cumulative = -1.62376e-21
ExecutionTime = 727.78 s  ClockTime = 730 s

Time = 0.00038

Courant Number mean: 0.00464604 max: 0.096745
DILUPBiCGStab:  Solving for Ux, Initial residual = 0.00816819, Final residual = 1.06573e-05, No Iterations 5
DILUPBiCGStab:  Solving for Uy, Initial residual = 0.013044, Final residual = 1.4326e-05, No Iterations 5
DILUPBiCGStab:  Solving for Uz, Initial residual = 0.024962, Final residual = 2.54627e-05, No Iterations 5
linear solve U 2675288
[OGL LOG][Proc: 0]global_index_init : 33 mu s
[OGL LOG][Proc: 0]global_index_init : 15 mu s
[OGL LOG][Proc: 0]update_host_matrix_data : 55597 mu s
[OGL LOG][Proc: 0]gather_global_matrix : 0 mu s
[OGL LOG][Proc: 0]init_precond : 46 mu s
[OGL LOG][Proc: 0]generate_solver : 1 mu s
[OGL LOG][Proc: 0]solve : 9294751 mu s
[OGL LOG][Proc: 0]copy_x_back : 5607 mu s
nonecudaGKOCG:  Solving for p, Initial residual = 0.0131198, Final residual = 9.53847e-05, No Iterations 2921
linear solve p 11539272
time step continuity errors : sum local = 1.08426e-10, global = -1.67703e-22, cumulative = -1.79146e-21
[OGL LOG][Proc: 0]global_index_init : 32 mu s
[OGL LOG][Proc: 0]global_index_init : 21 mu s
[OGL LOG][Proc: 0]update_host_matrix_data : 49173 mu s
[OGL LOG][Proc: 0]gather_global_matrix : 0 mu s
[OGL LOG][Proc: 0]init_precond : 45 mu s
[OGL LOG][Proc: 0]generate_solver : 1 mu s
[OGL LOG][Proc: 0]solve : 7772475 mu s
[OGL LOG][Proc: 0]copy_x_back : 5693 mu s
nonecudaGKOCG:  Solving for p, Initial residual = 0.0126459, Final residual = 1.74579e-06, No Iterations 2437
linear solve p 10012068
time step continuity errors : sum local = 2.10376e-12, global = -1.11666e-22, cumulative = -1.90313e-21
ExecutionTime = 754.05 s  ClockTime = 757 s

Time = 0.0004

Courant Number mean: 0.00475657 max: 0.0968294
DILUPBiCGStab:  Solving for Ux, Initial residual = 0.00777013, Final residual = 9.9551e-06, No Iterations 5
DILUPBiCGStab:  Solving for Uy, Initial residual = 0.0123318, Final residual = 1.35172e-05, No Iterations 5
DILUPBiCGStab:  Solving for Uz, Initial residual = 0.0239074, Final residual = 2.3627e-05, No Iterations 5
linear solve U 2656680
[OGL LOG][Proc: 0]global_index_init : 37 mu s
[OGL LOG][Proc: 0]global_index_init : 16 mu s
[OGL LOG][Proc: 0]update_host_matrix_data : 55580 mu s
[OGL LOG][Proc: 0]gather_global_matrix : 0 mu s
[OGL LOG][Proc: 0]init_precond : 37 mu s
[OGL LOG][Proc: 0]generate_solver : 1 mu s
[OGL LOG][Proc: 0]solve : 6518644 mu s
[OGL LOG][Proc: 0]copy_x_back : 5499 mu s
nonecudaGKOCG:  Solving for p, Initial residual = 0.0121836, Final residual = 3.94776e-06, No Iterations 2038
linear solve p 8760355
time step continuity errors : sum local = 4.48928e-12, global = -6.70916e-23, cumulative = -1.97022e-21
[OGL LOG][Proc: 0]global_index_init : 37 mu s
[OGL LOG][Proc: 0]global_index_init : 12 mu s
[OGL LOG][Proc: 0]update_host_matrix_data : 48457 mu s
[OGL LOG][Proc: 0]gather_global_matrix : 0 mu s
[OGL LOG][Proc: 0]init_precond : 43 mu s
[OGL LOG][Proc: 0]generate_solver : 2 mu s
[OGL LOG][Proc: 0]solve : 5455634 mu s
[OGL LOG][Proc: 0]copy_x_back : 6239 mu s
nonecudaGKOCG:  Solving for p, Initial residual = 0.0117911, Final residual = 2.83461e-05, No Iterations 1702
linear solve p 7696305
time step continuity errors : sum local = 3.20979e-11, global = -1.1563e-22, cumulative = -2.08585e-21
ExecutionTime = 775.04 s  ClockTime = 778 s

End

Finalising parallel run
================================================================================

============================= JOB FEEDBACK =============================

Job ID: 1747357
Cluster: hk
User/Group: eq4036/hk-project-test-fine
State: COMPLETED (exit code 0)
Partition: accelerated
Nodes: 8
Cores per node: 152
Nodelist: hkn[0524-0530,0533]
CPU Utilized: 01:26:03
CPU Efficiency: 0.32% of 18-13:31:44 core-walltime
Job Wall-clock time: 00:21:59
[...]
[OGL LOG][Proc: 0]copy_x_back : 391 mu s
nonecudaGKOCG:  Solving for p, Initial residual = 0.0133033, Final residual = 5.33662e-05, No Iterations 701
linear solve p 194699
time step continuity errors : sum local = 1.28709e-09, global = -7.20613e-22, cumulative = -5.01607e-21
ExecutionTime = 7.37 s  ClockTime = 8 s

Time = 0.0009

Courant Number mean: 0.00631846 max: 0.0883466
DILUPBiCGStab:  Solving for Ux, Initial residual = 0.0205619, Final residual = 8.90735e-08, No Iterations 5
DILUPBiCGStab:  Solving for Uy, Initial residual = 0.0286477, Final residual = 5.10941e-08, No Iterations 5
DILUPBiCGStab:  Solving for Uz, Initial residual = 0.0517545, Final residual = 7.09369e-08, No Iterations 5
linear solve U 120742
[OGL LOG][Proc: 0]global_index_init : 7 mu s
[OGL LOG][Proc: 0]global_index_init : 1 mu s
[OGL LOG][Proc: 0]update_host_matrix_data : 3751 mu s
[OGL LOG][Proc: 0]gather_global_matrix : 0 mu s
[OGL LOG][Proc: 0]init_precond : 31 mu s
[OGL LOG][Proc: 0]generate_solver : 1 mu s
[OGL LOG][Proc: 0]solve : 136671 mu s
[OGL LOG][Proc: 0]copy_x_back : 362 mu s
nonecudaGKOCG:  Solving for p, Initial residual = 0.0138349, Final residual = 5.20512e-05, No Iterations 701
linear solve p 194878
time step continuity errors : sum local = 1.25778e-09, global = -4.45872e-22, cumulative = -5.46194e-21
[OGL LOG][Proc: 0]global_index_init : 4 mu s
[OGL LOG][Proc: 0]global_index_init : 1 mu s
[OGL LOG][Proc: 0]update_host_matrix_data : 3695 mu s
[OGL LOG][Proc: 0]gather_global_matrix : 0 mu s
[OGL LOG][Proc: 0]init_precond : 30 mu s
[OGL LOG][Proc: 0]generate_solver : 1 mu s
[OGL LOG][Proc: 0]solve : 136744 mu s
[OGL LOG][Proc: 0]copy_x_back : 361 mu s
nonecudaGKOCG:  Solving for p, Initial residual = 0.0111273, Final residual = 3.93764e-05, No Iterations 701
linear solve p 194140
time step continuity errors : sum local = 9.53812e-10, global = -1.66253e-21, cumulative = -7.12447e-21
ExecutionTime = 7.93 s  ClockTime = 9 s

Time = 0.001

Courant Number mean: 0.00664437 max: 0.089014
DILUPBiCGStab:  Solving for Ux, Initial residual = 0.0181855, Final residual = 7.60122e-08, No Iterations 5
DILUPBiCGStab:  Solving for Uy, Initial residual = 0.0252108, Final residual = 4.25441e-08, No Iterations 5
DILUPBiCGStab:  Solving for Uz, Initial residual = 0.0463266, Final residual = 5.91167e-08, No Iterations 5
linear solve U 121208
[OGL LOG][Proc: 0]global_index_init : 7 mu s
[OGL LOG][Proc: 0]global_index_init : 1 mu s
[OGL LOG][Proc: 0]update_host_matrix_data : 3720 mu s
[OGL LOG][Proc: 0]gather_global_matrix : 0 mu s
[OGL LOG][Proc: 0]init_precond : 30 mu s
[OGL LOG][Proc: 0]generate_solver : 1 mu s
[OGL LOG][Proc: 0]solve : 137008 mu s
[OGL LOG][Proc: 0]copy_x_back : 344 mu s
nonecudaGKOCG:  Solving for p, Initial residual = 0.0117519, Final residual = 4.26033e-05, No Iterations 701
linear solve p 194361
time step continuity errors : sum local = 1.03371e-09, global = -5.70652e-22, cumulative = -7.69512e-21
[OGL LOG][Proc: 0]global_index_init : 8 mu s
[OGL LOG][Proc: 0]global_index_init : 1 mu s
[OGL LOG][Proc: 0]update_host_matrix_data : 3739 mu s
[OGL LOG][Proc: 0]gather_global_matrix : 0 mu s
[OGL LOG][Proc: 0]init_precond : 30 mu s
[OGL LOG][Proc: 0]generate_solver : 1 mu s
[OGL LOG][Proc: 0]solve : 137021 mu s
[OGL LOG][Proc: 0]copy_x_back : 347 mu s
nonecudaGKOCG:  Solving for p, Initial residual = 0.009491, Final residual = 3.2583e-05, No Iterations 701
linear solve p 194006
time step continuity errors : sum local = 7.9217e-10, global = -8.5989e-23, cumulative = -7.78111e-21
ExecutionTime = 8.48 s  ClockTime = 9 s

Time = 0.0011

Courant Number mean: 0.00694532 max: 0.0895672
DILUPBiCGStab:  Solving for Ux, Initial residual = 0.0162987, Final residual = 6.53261e-08, No Iterations 5
DILUPBiCGStab:  Solving for Uy, Initial residual = 0.0224923, Final residual = 3.63627e-08, No Iterations 5
DILUPBiCGStab:  Solving for Uz, Initial residual = 0.04189, Final residual = 5.05836e-08, No Iterations 5
linear solve U 124348
[OGL LOG][Proc: 0]global_index_init : 9 mu s
[OGL LOG][Proc: 0]global_index_init : 1 mu s
[OGL LOG][Proc: 0]update_host_matrix_data : 3707 mu s
[OGL LOG][Proc: 0]gather_global_matrix : 0 mu s
[OGL LOG][Proc: 0]init_precond : 29 mu s
[OGL LOG][Proc: 0]generate_solver : 1 mu s
[OGL LOG][Proc: 0]solve : 137587 mu s
[OGL LOG][Proc: 0]copy_x_back : 351 mu s
nonecudaGKOCG:  Solving for p, Initial residual = 0.010164, Final residual = 3.57894e-05, No Iterations 701
linear solve p 194605
time step continuity errors : sum local = 8.71422e-10, global = -8.41638e-22, cumulative = -8.62275e-21
[OGL LOG][Proc: 0]global_index_init : 10 mu s
[OGL LOG][Proc: 0]global_index_init : 1 mu s
[OGL LOG][Proc: 0]update_host_matrix_data : 3573 mu s
[OGL LOG][Proc: 0]gather_global_matrix : 0 mu s
[OGL LOG][Proc: 0]init_precond : 31 mu s
[OGL LOG][Proc: 0]generate_solver : 2 mu s
[OGL LOG][Proc: 0]solve : 132204 mu s
[OGL LOG][Proc: 0]copy_x_back : 346 mu s
nonecudaGKOCG:  Solving for p, Initial residual = 0.00823126, Final residual = 9.82226e-05, No Iterations 673
linear solve p 188973
time step continuity errors : sum local = 2.39596e-09, global = -3.88845e-22, cumulative = -9.01159e-21
ExecutionTime = 9.03 s  ClockTime = 10 s

Time = 0.0012

Courant Number mean: 0.00722379 max: 0.0900355
DILUPBiCGStab:  Solving for Ux, Initial residual = 0.0147485, Final residual = 5.65678e-08, No Iterations 5
DILUPBiCGStab:  Solving for Uy, Initial residual = 0.0202882, Final residual = 3.17206e-08, No Iterations 5
DILUPBiCGStab:  Solving for Uz, Initial residual = 0.0381827, Final residual = 4.46693e-08, No Iterations 5
linear solve U 121090
[OGL LOG][Proc: 0]global_index_init : 8 mu s
[OGL LOG][Proc: 0]global_index_init : 1 mu s
[OGL LOG][Proc: 0]update_host_matrix_data : 3749 mu s
[OGL LOG][Proc: 0]gather_global_matrix : 0 mu s
[OGL LOG][Proc: 0]init_precond : 30 mu s
[OGL LOG][Proc: 0]generate_solver : 1 mu s
[OGL LOG][Proc: 0]solve : 133699 mu s
[OGL LOG][Proc: 0]copy_x_back : 370 mu s
nonecudaGKOCG:  Solving for p, Initial residual = 0.0090141, Final residual = 9.21027e-05, No Iterations 677
linear solve p 190866
time step continuity errors : sum local = 2.24969e-09, global = -1.87428e-21, cumulative = -1.08859e-20
[OGL LOG][Proc: 0]global_index_init : 7 mu s
[OGL LOG][Proc: 0]global_index_init : 1 mu s
[OGL LOG][Proc: 0]update_host_matrix_data : 3658 mu s
[OGL LOG][Proc: 0]gather_global_matrix : 0 mu s
[OGL LOG][Proc: 0]init_precond : 32 mu s
[OGL LOG][Proc: 0]generate_solver : 1 mu s
[OGL LOG][Proc: 0]solve : 133528 mu s
[OGL LOG][Proc: 0]copy_x_back : 337 mu s
nonecudaGKOCG:  Solving for p, Initial residual = 0.00733624, Final residual = 7.56402e-05, No Iterations 676
linear solve p 191055
time step continuity errors : sum local = 1.85024e-09, global = 6.18757e-23, cumulative = -1.0824e-20
ExecutionTime = 9.58 s  ClockTime = 10 s

Time = 0.0013

Courant Number mean: 0.00748301 max: 0.0904386
DILUPBiCGStab:  Solving for Ux, Initial residual = 0.0134671, Final residual = 4.95182e-08, No Iterations 5
DILUPBiCGStab:  Solving for Uy, Initial residual = 0.0184652, Final residual = 2.81335e-08, No Iterations 5
DILUPBiCGStab:  Solving for Uz, Initial residual = 0.0350534, Final residual = 3.98571e-08, No Iterations 5
linear solve U 122655
[OGL LOG][Proc: 0]global_index_init : 10 mu s
[OGL LOG][Proc: 0]global_index_init : 1 mu s
[OGL LOG][Proc: 0]update_host_matrix_data : 3785 mu s
[OGL LOG][Proc: 0]gather_global_matrix : 0 mu s
[OGL LOG][Proc: 0]init_precond : 32 mu s
[OGL LOG][Proc: 0]generate_solver : 1 mu s
[OGL LOG][Proc: 0]solve : 133991 mu s
[OGL LOG][Proc: 0]copy_x_back : 405 mu s
nonecudaGKOCG:  Solving for p, Initial residual = 0.0080486, Final residual = 8.83014e-05, No Iterations 676
linear solve p 192453
time step continuity errors : sum local = 2.16252e-09, global = -1.37302e-22, cumulative = -1.09613e-20
[OGL LOG][Proc: 0]global_index_init : 6 mu s
[OGL LOG][Proc: 0]global_index_init : 1 mu s
[OGL LOG][Proc: 0]update_host_matrix_data : 3685 mu s
[OGL LOG][Proc: 0]gather_global_matrix : 0 mu s
[OGL LOG][Proc: 0]init_precond : 31 mu s
[OGL LOG][Proc: 0]generate_solver : 1 mu s
[OGL LOG][Proc: 0]solve : 133025 mu s
[OGL LOG][Proc: 0]copy_x_back : 359 mu s
nonecudaGKOCG:  Solving for p, Initial residual = 0.00657123, Final residual = 6.18009e-05, No Iterations 676
linear solve p 190228
time step continuity errors : sum local = 1.51541e-09, global = -3.61048e-22, cumulative = -1.13223e-20
ExecutionTime = 10.12 s  ClockTime = 11 s

Time = 0.0014

Courant Number mean: 0.00772783 max: 0.0907903
DILUPBiCGStab:  Solving for Ux, Initial residual = 0.0123794, Final residual = 4.38846e-08, No Iterations 5
DILUPBiCGStab:  Solving for Uy, Initial residual = 0.0169325, Final residual = 2.52951e-08, No Iterations 5
DILUPBiCGStab:  Solving for Uz, Initial residual = 0.0323935, Final residual = 3.57398e-08, No Iterations 5
linear solve U 167994
[OGL LOG][Proc: 0]global_index_init : 29 mu s
[OGL LOG][Proc: 0]global_index_init : 1 mu s
[OGL LOG][Proc: 0]update_host_matrix_data : 3754 mu s
[OGL LOG][Proc: 0]gather_global_matrix : 0 mu s
[OGL LOG][Proc: 0]init_precond : 32 mu s
[OGL LOG][Proc: 0]generate_solver : 1 mu s
[OGL LOG][Proc: 0]solve : 230949 mu s
[OGL LOG][Proc: 0]copy_x_back : 365 mu s
nonecudaGKOCG:  Solving for p, Initial residual = 0.00719138, Final residual = 8.10341e-05, No Iterations 676
linear solve p 327555
time step continuity errors : sum local = 1.989e-09, global = 1.27187e-22, cumulative = -1.11952e-20
[OGL LOG][Proc: 0]global_index_init : 6 mu s
[OGL LOG][Proc: 0]global_index_init : 1 mu s
[OGL LOG][Proc: 0]update_host_matrix_data : 3693 mu s
[OGL LOG][Proc: 0]gather_global_matrix : 0 mu s
[OGL LOG][Proc: 0]init_precond : 30 mu s
[OGL LOG][Proc: 0]generate_solver : 1 mu s
[OGL LOG][Proc: 0]solve : 134649 mu s
[OGL LOG][Proc: 0]copy_x_back : 336 mu s
nonecudaGKOCG:  Solving for p, Initial residual = 0.00589787, Final residual = 5.39332e-05, No Iterations 676
linear solve p 192477
time step continuity errors : sum local = 1.32529e-09, global = -8.97503e-22, cumulative = -1.20927e-20
ExecutionTime = 10.86 s  ClockTime = 12 s

Time = 0.0015

Courant Number mean: 0.0079586 max: 0.0911005
DILUPBiCGStab:  Solving for Ux, Initial residual = 0.011447, Final residual = 3.91761e-08, No Iterations 5
DILUPBiCGStab:  Solving for Uy, Initial residual = 0.0156259, Final residual = 2.30035e-08, No Iterations 5
DILUPBiCGStab:  Solving for Uz, Initial residual = 0.0300889, Final residual = 3.23895e-08, No Iterations 5
linear solve U 122968
[OGL LOG][Proc: 0]global_index_init : 9 mu s
[OGL LOG][Proc: 0]global_index_init : 1 mu s
[OGL LOG][Proc: 0]update_host_matrix_data : 3735 mu s
[OGL LOG][Proc: 0]gather_global_matrix : 0 mu s
[OGL LOG][Proc: 0]init_precond : 31 mu s
[OGL LOG][Proc: 0]generate_solver : 1 mu s
[OGL LOG][Proc: 0]solve : 133318 mu s
[OGL LOG][Proc: 0]copy_x_back : 342 mu s
nonecudaGKOCG:  Solving for p, Initial residual = 0.00650192, Final residual = 7.31464e-05, No Iterations 676
linear solve p 195901
time step continuity errors : sum local = 1.79904e-09, global = -3.98106e-22, cumulative = -1.24908e-20
[OGL LOG][Proc: 0]global_index_init : 7 mu s
[OGL LOG][Proc: 0]global_index_init : 1 mu s
[OGL LOG][Proc: 0]update_host_matrix_data : 3751 mu s
[OGL LOG][Proc: 0]gather_global_matrix : 0 mu s
[OGL LOG][Proc: 0]init_precond : 33 mu s
[OGL LOG][Proc: 0]generate_solver : 1 mu s
[OGL LOG][Proc: 0]solve : 112232 mu s
[OGL LOG][Proc: 0]copy_x_back : 369 mu s
nonecudaGKOCG:  Solving for p, Initial residual = 0.00534448, Final residual = 9.87973e-05, No Iterations 541
linear solve p 168992
time step continuity errors : sum local = 2.46802e-09, global = -1.35637e-22, cumulative = -1.26264e-20
ExecutionTime = 11.4 s  ClockTime = 12 s

Time = 0.0016

Courant Number mean: 0.00817648 max: 0.0913769
DILUPBiCGStab:  Solving for Ux, Initial residual = 0.0106401, Final residual = 3.51938e-08, No Iterations 5
DILUPBiCGStab:  Solving for Uy, Initial residual = 0.0145001, Final residual = 2.11161e-08, No Iterations 5
DILUPBiCGStab:  Solving for Uz, Initial residual = 0.0280984, Final residual = 3.01566e-08, No Iterations 5
linear solve U 122068
[OGL LOG][Proc: 0]global_index_init : 7 mu s
[OGL LOG][Proc: 0]global_index_init : 1 mu s
[OGL LOG][Proc: 0]update_host_matrix_data : 3779 mu s
[OGL LOG][Proc: 0]gather_global_matrix : 0 mu s
[OGL LOG][Proc: 0]init_precond : 30 mu s
[OGL LOG][Proc: 0]generate_solver : 1 mu s
[OGL LOG][Proc: 0]solve : 98376 mu s
[OGL LOG][Proc: 0]copy_x_back : 340 mu s
nonecudaGKOCG:  Solving for p, Initial residual = 0.00596821, Final residual = 1.06895e-05, No Iterations 442
linear solve p 161512
time step continuity errors : sum local = 2.92251e-10, global = 1.23014e-21, cumulative = -1.13963e-20
[OGL LOG][Proc: 0]global_index_init : 7 mu s
[OGL LOG][Proc: 0]global_index_init : 1 mu s
[OGL LOG][Proc: 0]update_host_matrix_data : 3761 mu s
[OGL LOG][Proc: 0]gather_global_matrix : 0 mu s
[OGL LOG][Proc: 0]init_precond : 30 mu s
[OGL LOG][Proc: 0]generate_solver : 1 mu s
[OGL LOG][Proc: 0]solve : 86429 mu s
[OGL LOG][Proc: 0]copy_x_back : 360 mu s
nonecudaGKOCG:  Solving for p, Initial residual = 0.00486542, Final residual = 1.40711e-05, No Iterations 358
linear solve p 143310
time step continuity errors : sum local = 3.87461e-10, global = 6.03402e-23, cumulative = -1.13359e-20
ExecutionTime = 11.86 s  ClockTime = 13 s

Time = 0.0017

Courant Number mean: 0.00838248 max: 0.0916252
DILUPBiCGStab:  Solving for Ux, Initial residual = 0.00993242, Final residual = 3.18246e-08, No Iterations 5
DILUPBiCGStab:  Solving for Uy, Initial residual = 0.0135174, Final residual = 1.95019e-08, No Iterations 5
DILUPBiCGStab:  Solving for Uz, Initial residual = 0.0263624, Final residual = 2.7343e-08, No Iterations 5
linear solve U 121926
[OGL LOG][Proc: 0]global_index_init : 8 mu s
[OGL LOG][Proc: 0]global_index_init : 1 mu s
[OGL LOG][Proc: 0]update_host_matrix_data : 3687 mu s
[OGL LOG][Proc: 0]gather_global_matrix : 0 mu s
[OGL LOG][Proc: 0]init_precond : 31 mu s
[OGL LOG][Proc: 0]generate_solver : 1 mu s
[OGL LOG][Proc: 0]solve : 77674 mu s
[OGL LOG][Proc: 0]copy_x_back : 345 mu s
nonecudaGKOCG:  Solving for p, Initial residual = 0.00536034, Final residual = 3.24768e-05, No Iterations 295
linear solve p 140324
time step continuity errors : sum local = 8.12421e-10, global = -1.35366e-21, cumulative = -1.26896e-20
[OGL LOG][Proc: 0]global_index_init : 4 mu s
[OGL LOG][Proc: 0]global_index_init : 1 mu s
[OGL LOG][Proc: 0]update_host_matrix_data : 3761 mu s
[OGL LOG][Proc: 0]gather_global_matrix : 0 mu s
[OGL LOG][Proc: 0]init_precond : 30 mu s
[OGL LOG][Proc: 0]generate_solver : 1 mu s
[OGL LOG][Proc: 0]solve : 74425 mu s
[OGL LOG][Proc: 0]copy_x_back : 339 mu s
nonecudaGKOCG:  Solving for p, Initial residual = 0.00439761, Final residual = 7.72926e-05, No Iterations 265
linear solve p 131359
time step continuity errors : sum local = 1.93978e-09, global = -1.38416e-21, cumulative = -1.40738e-20
ExecutionTime = 12.29 s  ClockTime = 13 s

Time = 0.0018

Courant Number mean: 0.00857954 max: 0.0918496
DILUPBiCGStab:  Solving for Ux, Initial residual = 0.00931084, Final residual = 2.89503e-08, No Iterations 5
DILUPBiCGStab:  Solving for Uy, Initial residual = 0.0126548, Final residual = 1.8115e-08, No Iterations 5
DILUPBiCGStab:  Solving for Uz, Initial residual = 0.024774, Final residual = 2.54546e-08, No Iterations 5
linear solve U 122025
[OGL LOG][Proc: 0]global_index_init : 9 mu s
[OGL LOG][Proc: 0]global_index_init : 1 mu s
[OGL LOG][Proc: 0]update_host_matrix_data : 3762 mu s
[OGL LOG][Proc: 0]gather_global_matrix : 0 mu s
[OGL LOG][Proc: 0]init_precond : 36 mu s
[OGL LOG][Proc: 0]generate_solver : 2 mu s
[OGL LOG][Proc: 0]solve : 78638 mu s
[OGL LOG][Proc: 0]copy_x_back : 335 mu s
nonecudaGKOCG:  Solving for p, Initial residual = 0.00502511, Final residual = 7.1465e-05, No Iterations 271
linear solve p 140946
time step continuity errors : sum local = 1.77311e-09, global = -1.49573e-21, cumulative = -1.55695e-20
[OGL LOG][Proc: 0]global_index_init : 6 mu s
[OGL LOG][Proc: 0]global_index_init : 1 mu s
[OGL LOG][Proc: 0]update_host_matrix_data : 3687 mu s
[OGL LOG][Proc: 0]gather_global_matrix : 0 mu s
[OGL LOG][Proc: 0]init_precond : 32 mu s
[OGL LOG][Proc: 0]generate_solver : 1 mu s
[OGL LOG][Proc: 0]solve : 74865 mu s
[OGL LOG][Proc: 0]copy_x_back : 360 mu s
nonecudaGKOCG:  Solving for p, Initial residual = 0.00413442, Final residual = 8.75286e-05, No Iterations 261
linear solve p 131401
time step continuity errors : sum local = 2.18901e-09, global = -7.87136e-22, cumulative = -1.63566e-20
ExecutionTime = 12.73 s  ClockTime = 14 s

Time = 0.0019

Courant Number mean: 0.00876812 max: 0.0920539
DILUPBiCGStab:  Solving for Ux, Initial residual = 0.00875809, Final residual = 2.6477e-08, No Iterations 5
DILUPBiCGStab:  Solving for Uy, Initial residual = 0.0118905, Final residual = 1.6905e-08, No Iterations 5
DILUPBiCGStab:  Solving for Uz, Initial residual = 0.0233634, Final residual = 2.36951e-08, No Iterations 5
linear solve U 122064
[OGL LOG][Proc: 0]global_index_init : 7 mu s
[OGL LOG][Proc: 0]global_index_init : 1 mu s
[OGL LOG][Proc: 0]update_host_matrix_data : 3737 mu s
[OGL LOG][Proc: 0]gather_global_matrix : 0 mu s
[OGL LOG][Proc: 0]init_precond : 32 mu s
[OGL LOG][Proc: 0]generate_solver : 1 mu s
[OGL LOG][Proc: 0]solve : 76686 mu s
[OGL LOG][Proc: 0]copy_x_back : 345 mu s
nonecudaGKOCG:  Solving for p, Initial residual = 0.00468687, Final residual = 6.93905e-05, No Iterations 271
linear solve p 139370
time step continuity errors : sum local = 1.71834e-09, global = -1.31722e-21, cumulative = -1.76738e-20
[OGL LOG][Proc: 0]global_index_init : 9 mu s
[OGL LOG][Proc: 0]global_index_init : 2 mu s
[OGL LOG][Proc: 0]update_host_matrix_data : 3660 mu s
[OGL LOG][Proc: 0]gather_global_matrix : 0 mu s
[OGL LOG][Proc: 0]init_precond : 29 mu s
[OGL LOG][Proc: 0]generate_solver : 1 mu s
[OGL LOG][Proc: 0]solve : 74764 mu s
[OGL LOG][Proc: 0]copy_x_back : 336 mu s
nonecudaGKOCG:  Solving for p, Initial residual = 0.00385952, Final residual = 8.15696e-05, No Iterations 261
linear solve p 131254
time step continuity errors : sum local = 2.03761e-09, global = -1.64614e-21, cumulative = -1.932e-20
ExecutionTime = 13.16 s  ClockTime = 14 s

Time = 0.002

Courant Number mean: 0.00894848 max: 0.0922409
DILUPBiCGStab:  Solving for Ux, Initial residual = 0.00826091, Final residual = 2.4341e-08, No Iterations 5
DILUPBiCGStab:  Solving for Uy, Initial residual = 0.0112089, Final residual = 1.58343e-08, No Iterations 5
DILUPBiCGStab:  Solving for Uz, Initial residual = 0.022097, Final residual = 2.20425e-08, No Iterations 5
linear solve U 122269
[OGL LOG][Proc: 0]global_index_init : 8 mu s
[OGL LOG][Proc: 0]global_index_init : 1 mu s
[OGL LOG][Proc: 0]update_host_matrix_data : 3777 mu s
[OGL LOG][Proc: 0]gather_global_matrix : 0 mu s
[OGL LOG][Proc: 0]init_precond : 31 mu s
[OGL LOG][Proc: 0]generate_solver : 1 mu s
[OGL LOG][Proc: 0]solve : 75281 mu s
[OGL LOG][Proc: 0]copy_x_back : 333 mu s
nonecudaGKOCG:  Solving for p, Initial residual = 0.00432866, Final residual = 9.3841e-05, No Iterations 261
linear solve p 137949
time step continuity errors : sum local = 2.32853e-09, global = -1.64485e-21, cumulative = -2.09648e-20
[OGL LOG][Proc: 0]global_index_init : 5 mu s
[OGL LOG][Proc: 0]global_index_init : 1 mu s
[OGL LOG][Proc: 0]update_host_matrix_data : 3757 mu s
[OGL LOG][Proc: 0]gather_global_matrix : 0 mu s
[OGL LOG][Proc: 0]init_precond : 30 mu s
[OGL LOG][Proc: 0]generate_solver : 1 mu s
[OGL LOG][Proc: 0]solve : 75296 mu s
[OGL LOG][Proc: 0]copy_x_back : 341 mu s
nonecudaGKOCG:  Solving for p, Initial residual = 0.00359995, Final residual = 6.91391e-05, No Iterations 261
linear solve p 132146
time step continuity errors : sum local = 1.72592e-09, global = -3.06531e-22, cumulative = -2.12714e-20
ExecutionTime = 13.6 s  ClockTime = 15 s

End

Finalising parallel run
================================================================================
