hash: 1e2b9e43b917f703c726099e4befc93b
/*---------------------------------------------------------------------------*\
| =========                 |                                                 |
| \\      /  F ield         | OpenFOAM: The Open Source CFD Toolbox           |
|  \\    /   O peration     | Version:  v2106                                 |
|   \\  /    A nd           | Website:  www.openfoam.com                      |
|    \\/     M anipulation  |                                                 |
\*---------------------------------------------------------------------------*/
Build  : f815a12bba-20210902 OPENFOAM=2106
Arch   : "LSB;label=32;scalar=64"
Exec   : icoFoam -parallel
Date   : Jun 23 2022
Time   : 11:28:09
Host   : nla-gpu2.ianm.kit.edu
PID    : 23386
I/O    : uncollated
Case   : /home/greole/data/code/ogl_labbook/lidDrivenCavity/simple/Variation_mesh/200/Variation_matrix_solver/CG_NoPrecond_HIP/Variation_mpiRank_gko/4/base
nProcs : 4
Hosts  :
(
    (nla-gpu2.ianm.kit.edu 4)
)
Pstream initialized with:
    floatTransfer      : 0
    nProcsSimpleSum    : 0
    commsType          : nonBlocking
    polling iterations : 0
trapFpe: Floating point exception trapping enabled (FOAM_SIGFPE).
fileModificationChecking : Monitoring run-time modified files using timeStampMaster (fileModificationSkew 5, maxFileModificationPolls 20)
allowSystemOperations : Allowing user-supplied system call operations

// * * * * * * * * * * * * * * * * * * * * * * * * * * * * * * * * * * * * * //
Create time

Create mesh for time = 0


PISO: Operating solver in PISO mode

Reading transportProperties

Reading field p

Reading field U

Reading/calculating face flux field phi


Starting time loop

Time = 5e-05

Courant Number mean: 0 max: 0
DILUPBiCGStab:  Solving for Ux, Initial residual = 1, Final residual = 8.68229e-05, No Iterations 5
DILUPBiCGStab:  Solving for Uy:  solution singularity
DILUPBiCGStab:  Solving for Uz:  solution singularity
linear solve U 884543
[OGL LOG][Proc: 0]global_index_init: 13.725 [ms]
[OGL LOG][Proc: 0]global_index_init: 0.002 [ms]
[OGL LOG][Proc: 0]init_host_sparsity_pattern: 51940.3 [ms]
[OGL LOG][Proc: 0]update_host_matrix_data: 245.104 [ms]
[OGL LOG][Proc: 0]convert_coo_to_csr: 462.611 [ms]
[OGL LOG][lduLduBase.H:153] Initialising OGL
	Version:  484b851
	branch: multi_gpu 
	Ginkgo version: 1.5.0(develop)
	MPI is GPU aware: 1)
	Forces host buffer based communication: 1
[OGL LOG][Proc: 0]gather_global_matrix: 0 [ms]
[OGL LOG][Proc: 0]generate_distributed_matrix: 72.301 [ms]
[OGL LOG][Proc: 0]init_precond: 0.089 [ms]
[OGL LOG][Proc: 0]generate_solver: 0.025 [ms]
[OGL LOG][Proc: 0]solve: 2450.95 [ms]
[OGL LOG][Proc: 0]copy_x_back: 5.211 [ms]
[OGL LOG][lduLduBase.H:380] 
Statistics:
	Time per iteration: 1517 [mu s]
	Time per iteration and DOF: 0.189625 [ns]
	Retrieve results bandwith 3.070000 [GByte/s]
nonehipGKOCG:  Solving for p, Initial residual = 1, Final residual = 9.94893e-05, No Iterations 1615
linear solve p 56021060
time step continuity errors : sum local = 6.57667e-10, global = 7.01513e-22, cumulative = 7.01513e-22
[OGL LOG][Proc: 0]global_index_init: 0.021 [ms]
[OGL LOG][Proc: 0]global_index_init: 0.002 [ms]
[OGL LOG][Proc: 0]update_host_matrix_data: 118.745 [ms]
[OGL LOG][Proc: 0]gather_global_matrix: 0 [ms]
[OGL LOG][Proc: 0]generate_distributed_matrix: 41.577 [ms]
[OGL LOG][Proc: 0]init_precond: 0.049 [ms]
[OGL LOG][Proc: 0]generate_solver: 0.002 [ms]
[OGL LOG][Proc: 0]solve: 1991.67 [ms]
[OGL LOG][Proc: 0]copy_x_back: 5.288 [ms]
[OGL LOG][lduLduBase.H:380] 
Statistics:
	Time per iteration: 1244 [mu s]
	Time per iteration and DOF: 0.155500 [ns]
	Retrieve results bandwith 3.025000 [GByte/s]
nonehipGKOCG:  Solving for p, Initial residual = 0.644867, Final residual = 7.60342e-05, No Iterations 1601
linear solve p 2170272
time step continuity errors : sum local = 7.26141e-10, global = 4.66439e-23, cumulative = 7.48157e-22
ExecutionTime = 69.6 s  ClockTime = 70 s

Time = 0.0001

Courant Number mean: 0.0015614 max: 0.0657801
DILUPBiCGStab:  Solving for Ux, Initial residual = 0.189842, Final residual = 4.73719e-05, No Iterations 5
DILUPBiCGStab:  Solving for Uy, Initial residual = 0.330041, Final residual = 2.54858e-05, No Iterations 5
DILUPBiCGStab:  Solving for Uz, Initial residual = 0.993237, Final residual = 0.000106057, No Iterations 5
linear solve U 1690415
[OGL LOG][Proc: 0]global_index_init: 0.015 [ms]
[OGL LOG][Proc: 0]global_index_init: 0.002 [ms]
[OGL LOG][Proc: 0]update_host_matrix_data: 113.463 [ms]
[OGL LOG][Proc: 0]gather_global_matrix: 0 [ms]
[OGL LOG][Proc: 0]generate_distributed_matrix: 41.187 [ms]
[OGL LOG][Proc: 0]init_precond: 0.042 [ms]
[OGL LOG][Proc: 0]generate_solver: 0.002 [ms]
[OGL LOG][Proc: 0]solve: 1980.85 [ms]
[OGL LOG][Proc: 0]copy_x_back: 5.167 [ms]
[OGL LOG][lduLduBase.H:380] 
Statistics:
	Time per iteration: 1237 [mu s]
	Time per iteration and DOF: 0.154625 [ns]
	Retrieve results bandwith 3.096000 [GByte/s]
nonehipGKOCG:  Solving for p, Initial residual = 0.509063, Final residual = 3.4714e-05, No Iterations 1601
linear solve p 2150001
time step continuity errors : sum local = 3.2272e-10, global = -3.85381e-23, cumulative = 7.09619e-22
[OGL LOG][Proc: 0]global_index_init: 0.013 [ms]
[OGL LOG][Proc: 0]global_index_init: 0.002 [ms]
[OGL LOG][Proc: 0]update_host_matrix_data: 119.391 [ms]
[OGL LOG][Proc: 0]gather_global_matrix: 0 [ms]
[OGL LOG][Proc: 0]generate_distributed_matrix: 41.076 [ms]
[OGL LOG][Proc: 0]init_precond: 0.044 [ms]
[OGL LOG][Proc: 0]generate_solver: 0.002 [ms]
[OGL LOG][Proc: 0]solve: 2000.8 [ms]
[OGL LOG][Proc: 0]copy_x_back: 5.308 [ms]
[OGL LOG][lduLduBase.H:380] 
Statistics:
	Time per iteration: 1249 [mu s]
	Time per iteration and DOF: 0.156125 [ns]
	Retrieve results bandwith 3.014000 [GByte/s]
nonehipGKOCG:  Solving for p, Initial residual = 0.419745, Final residual = 3.30513e-05, No Iterations 1601
linear solve p 2181820
time step continuity errors : sum local = 3.16762e-10, global = 6.64598e-23, cumulative = 7.76078e-22
ExecutionTime = 76.61 s  ClockTime = 77 s

Time = 0.00015

Courant Number mean: 0.00241164 max: 0.0810514
DILUPBiCGStab:  Solving for Ux, Initial residual = 0.0803497, Final residual = 1.52732e-05, No Iterations 5
DILUPBiCGStab:  Solving for Uy, Initial residual = 0.137289, Final residual = 5.32096e-06, No Iterations 5
DILUPBiCGStab:  Solving for Uz, Initial residual = 0.0898474, Final residual = 1.4035e-05, No Iterations 5
linear solve U 1693654
[OGL LOG][Proc: 0]global_index_init: 0.01 [ms]
[OGL LOG][Proc: 0]global_index_init: 0.002 [ms]
[OGL LOG][Proc: 0]update_host_matrix_data: 107.851 [ms]
[OGL LOG][Proc: 0]gather_global_matrix: 0 [ms]
[OGL LOG][Proc: 0]generate_distributed_matrix: 41.029 [ms]
[OGL LOG][Proc: 0]init_precond: 0.043 [ms]
[OGL LOG][Proc: 0]generate_solver: 0.002 [ms]
[OGL LOG][Proc: 0]solve: 1917.48 [ms]
[OGL LOG][Proc: 0]copy_x_back: 5.233 [ms]
[OGL LOG][lduLduBase.H:380] 
Statistics:
	Time per iteration: 1247 [mu s]
	Time per iteration and DOF: 0.155875 [ns]
	Retrieve results bandwith 3.057000 [GByte/s]
nonehipGKOCG:  Solving for p, Initial residual = 0.252453, Final residual = 8.51088e-05, No Iterations 1537
linear solve p 2081381
time step continuity errors : sum local = 6.11934e-10, global = 2.06728e-22, cumulative = 9.82806e-22
[OGL LOG][Proc: 0]global_index_init: 0.014 [ms]
[OGL LOG][Proc: 0]global_index_init: 0.002 [ms]
[OGL LOG][Proc: 0]update_host_matrix_data: 112.844 [ms]
[OGL LOG][Proc: 0]gather_global_matrix: 0 [ms]
[OGL LOG][Proc: 0]generate_distributed_matrix: 39.683 [ms]
[OGL LOG][Proc: 0]init_precond: 0.042 [ms]
[OGL LOG][Proc: 0]generate_solver: 0.002 [ms]
[OGL LOG][Proc: 0]solve: 1916.79 [ms]
[OGL LOG][Proc: 0]copy_x_back: 5.169 [ms]
[OGL LOG][lduLduBase.H:380] 
Statistics:
	Time per iteration: 1256 [mu s]
	Time per iteration and DOF: 0.157000 [ns]
	Retrieve results bandwith 3.095000 [GByte/s]
nonehipGKOCG:  Solving for p, Initial residual = 0.208829, Final residual = 9.91893e-05, No Iterations 1526
linear solve p 2090187
time step continuity errors : sum local = 7.05458e-10, global = 6.33428e-23, cumulative = 1.04615e-21
ExecutionTime = 83.51 s  ClockTime = 84 s

Time = 0.0002

Courant Number mean: 0.0029966 max: 0.0859676
DILUPBiCGStab:  Solving for Ux, Initial residual = 0.0511422, Final residual = 7.12145e-06, No Iterations 5
DILUPBiCGStab:  Solving for Uy, Initial residual = 0.0858833, Final residual = 3.10355e-06, No Iterations 5
DILUPBiCGStab:  Solving for Uz, Initial residual = 0.111297, Final residual = 9.11288e-06, No Iterations 5
linear solve U 1685943
[OGL LOG][Proc: 0]global_index_init: 0.015 [ms]
[OGL LOG][Proc: 0]global_index_init: 0.003 [ms]
[OGL LOG][Proc: 0]update_host_matrix_data: 105.151 [ms]
[OGL LOG][Proc: 0]gather_global_matrix: 0 [ms]
[OGL LOG][Proc: 0]generate_distributed_matrix: 39.386 [ms]
[OGL LOG][Proc: 0]init_precond: 0.044 [ms]
[OGL LOG][Proc: 0]generate_solver: 0.003 [ms]
[OGL LOG][Proc: 0]solve: 1904.28 [ms]
[OGL LOG][Proc: 0]copy_x_back: 5.093 [ms]
[OGL LOG][lduLduBase.H:380] 
Statistics:
	Time per iteration: 1247 [mu s]
	Time per iteration and DOF: 0.155875 [ns]
	Retrieve results bandwith 3.141000 [GByte/s]
nonehipGKOCG:  Solving for p, Initial residual = 0.122439, Final residual = 6.26112e-05, No Iterations 1526
linear solve p 2072683
time step continuity errors : sum local = 4.23168e-10, global = 1.17223e-22, cumulative = 1.16337e-21
[OGL LOG][Proc: 0]global_index_init: 0.014 [ms]
[OGL LOG][Proc: 0]global_index_init: 0.002 [ms]
[OGL LOG][Proc: 0]update_host_matrix_data: 115.442 [ms]
[OGL LOG][Proc: 0]gather_global_matrix: 0 [ms]
[OGL LOG][Proc: 0]generate_distributed_matrix: 39.18 [ms]
[OGL LOG][Proc: 0]init_precond: 0.045 [ms]
[OGL LOG][Proc: 0]generate_solver: 0.002 [ms]
[OGL LOG][Proc: 0]solve: 1916.33 [ms]
[OGL LOG][Proc: 0]copy_x_back: 5.19 [ms]
[OGL LOG][lduLduBase.H:380] 
Statistics:
	Time per iteration: 1255 [mu s]
	Time per iteration and DOF: 0.156875 [ns]
	Retrieve results bandwith 3.082000 [GByte/s]
nonehipGKOCG:  Solving for p, Initial residual = 0.0991554, Final residual = 5.22884e-05, No Iterations 1526
linear solve p 2091642
time step continuity errors : sum local = 3.57346e-10, global = 1.82213e-22, cumulative = 1.34558e-21
ExecutionTime = 90.38 s  ClockTime = 91 s

Time = 0.00025

Courant Number mean: 0.00346145 max: 0.088316
DILUPBiCGStab:  Solving for Ux, Initial residual = 0.0380462, Final residual = 4.12431e-06, No Iterations 5
DILUPBiCGStab:  Solving for Uy, Initial residual = 0.0619921, Final residual = 2.0459e-06, No Iterations 5
DILUPBiCGStab:  Solving for Uz, Initial residual = 0.0914404, Final residual = 4.51883e-06, No Iterations 5
linear solve U 1690003
[OGL LOG][Proc: 0]global_index_init: 0.013 [ms]
[OGL LOG][Proc: 0]global_index_init: 0.002 [ms]
[OGL LOG][Proc: 0]update_host_matrix_data: 108.804 [ms]
[OGL LOG][Proc: 0]gather_global_matrix: 0 [ms]
[OGL LOG][Proc: 0]generate_distributed_matrix: 40.827 [ms]
[OGL LOG][Proc: 0]init_precond: 0.043 [ms]
[OGL LOG][Proc: 0]generate_solver: 0.002 [ms]
[OGL LOG][Proc: 0]solve: 1898.68 [ms]
[OGL LOG][Proc: 0]copy_x_back: 5.572 [ms]
[OGL LOG][lduLduBase.H:380] 
Statistics:
	Time per iteration: 1244 [mu s]
	Time per iteration and DOF: 0.155500 [ns]
	Retrieve results bandwith 2.871000 [GByte/s]
nonehipGKOCG:  Solving for p, Initial residual = 0.0621053, Final residual = 4.2661e-05, No Iterations 1526
linear solve p 2064878
time step continuity errors : sum local = 2.8152e-10, global = -1.45225e-22, cumulative = 1.20036e-21
[OGL LOG][Proc: 0]global_index_init: 0.011 [ms]
[OGL LOG][Proc: 0]global_index_init: 0.002 [ms]
[OGL LOG][Proc: 0]update_host_matrix_data: 113.449 [ms]
[OGL LOG][Proc: 0]gather_global_matrix: 0 [ms]
[OGL LOG][Proc: 0]generate_distributed_matrix: 39.624 [ms]
[OGL LOG][Proc: 0]init_precond: 0.042 [ms]
[OGL LOG][Proc: 0]generate_solver: 0.002 [ms]
[OGL LOG][Proc: 0]solve: 1918.35 [ms]
[OGL LOG][Proc: 0]copy_x_back: 5.065 [ms]
[OGL LOG][lduLduBase.H:380] 
Statistics:
	Time per iteration: 1257 [mu s]
	Time per iteration and DOF: 0.157125 [ns]
	Retrieve results bandwith 3.158000 [GByte/s]
nonehipGKOCG:  Solving for p, Initial residual = 0.0522179, Final residual = 3.52944e-05, No Iterations 1526
linear solve p 2090975
time step continuity errors : sum local = 2.33263e-10, global = 2.07923e-22, cumulative = 1.40828e-21
ExecutionTime = 97.23 s  ClockTime = 98 s

Time = 0.0003

Courant Number mean: 0.00385434 max: 0.0897419
DILUPBiCGStab:  Solving for Ux, Initial residual = 0.0304956, Final residual = 2.53183e-06, No Iterations 5
DILUPBiCGStab:  Solving for Uy, Initial residual = 0.0485939, Final residual = 1.25815e-06, No Iterations 5
DILUPBiCGStab:  Solving for Uz, Initial residual = 0.076683, Final residual = 2.78451e-06, No Iterations 5
linear solve U 1689395
[OGL LOG][Proc: 0]global_index_init: 0.016 [ms]
[OGL LOG][Proc: 0]global_index_init: 0.002 [ms]
[OGL LOG][Proc: 0]update_host_matrix_data: 104.719 [ms]
[OGL LOG][Proc: 0]gather_global_matrix: 0 [ms]
[OGL LOG][Proc: 0]generate_distributed_matrix: 39.4 [ms]
[OGL LOG][Proc: 0]init_precond: 0.042 [ms]
[OGL LOG][Proc: 0]generate_solver: 0.002 [ms]
[OGL LOG][Proc: 0]solve: 1841.72 [ms]
[OGL LOG][Proc: 0]copy_x_back: 5.195 [ms]
[OGL LOG][lduLduBase.H:380] 
Statistics:
	Time per iteration: 1257 [mu s]
	Time per iteration and DOF: 0.157125 [ns]
	Retrieve results bandwith 3.079000 [GByte/s]
nonehipGKOCG:  Solving for p, Initial residual = 0.0392463, Final residual = 8.89357e-05, No Iterations 1465
linear solve p 2009499
time step continuity errors : sum local = 5.81703e-10, global = 1.02401e-22, cumulative = 1.51068e-21
[OGL LOG][Proc: 0]global_index_init: 0.008 [ms]
[OGL LOG][Proc: 0]global_index_init: 0.002 [ms]
[OGL LOG][Proc: 0]update_host_matrix_data: 115.518 [ms]
[OGL LOG][Proc: 0]gather_global_matrix: 0 [ms]
[OGL LOG][Proc: 0]generate_distributed_matrix: 39.192 [ms]
[OGL LOG][Proc: 0]init_precond: 0.044 [ms]
[OGL LOG][Proc: 0]generate_solver: 0.003 [ms]
[OGL LOG][Proc: 0]solve: 1839.78 [ms]
[OGL LOG][Proc: 0]copy_x_back: 5.242 [ms]
[OGL LOG][lduLduBase.H:380] 
Statistics:
	Time per iteration: 1267 [mu s]
	Time per iteration and DOF: 0.158375 [ns]
	Retrieve results bandwith 3.052000 [GByte/s]
nonehipGKOCG:  Solving for p, Initial residual = 0.0331958, Final residual = 9.74677e-05, No Iterations 1451
linear solve p 2015472
time step continuity errors : sum local = 6.40258e-10, global = -1.31244e-22, cumulative = 1.37944e-21
ExecutionTime = 103.94 s  ClockTime = 105 s

Time = 0.00035

Courant Number mean: 0.0041985 max: 0.0907274
DILUPBiCGStab:  Solving for Ux, Initial residual = 0.0255226, Final residual = 1.78747e-06, No Iterations 5
DILUPBiCGStab:  Solving for Uy, Initial residual = 0.0399275, Final residual = 9.04565e-07, No Iterations 5
DILUPBiCGStab:  Solving for Uz, Initial residual = 0.0657521, Final residual = 1.87337e-06, No Iterations 5
linear solve U 1687012
[OGL LOG][Proc: 0]global_index_init: 0.023 [ms]
[OGL LOG][Proc: 0]global_index_init: 0.003 [ms]
[OGL LOG][Proc: 0]update_host_matrix_data: 108.441 [ms]
[OGL LOG][Proc: 0]gather_global_matrix: 0 [ms]
[OGL LOG][Proc: 0]generate_distributed_matrix: 40.851 [ms]
[OGL LOG][Proc: 0]init_precond: 0.051 [ms]
[OGL LOG][Proc: 0]generate_solver: 0.002 [ms]
[OGL LOG][Proc: 0]solve: 1826.87 [ms]
[OGL LOG][Proc: 0]copy_x_back: 5.077 [ms]
[OGL LOG][lduLduBase.H:380] 
Statistics:
	Time per iteration: 1259 [mu s]
	Time per iteration and DOF: 0.157375 [ns]
	Retrieve results bandwith 3.151000 [GByte/s]
nonehipGKOCG:  Solving for p, Initial residual = 0.0289125, Final residual = 8.17107e-05, No Iterations 1451
linear solve p 1992468
time step continuity errors : sum local = 5.36176e-10, global = 2.46677e-22, cumulative = 1.62612e-21
[OGL LOG][Proc: 0]global_index_init: 0.027 [ms]
[OGL LOG][Proc: 0]global_index_init: 0.002 [ms]
[OGL LOG][Proc: 0]update_host_matrix_data: 113.527 [ms]
[OGL LOG][Proc: 0]gather_global_matrix: 0 [ms]
[OGL LOG][Proc: 0]generate_distributed_matrix: 40.139 [ms]
[OGL LOG][Proc: 0]init_precond: 0.041 [ms]
[OGL LOG][Proc: 0]generate_solver: 0.002 [ms]
[OGL LOG][Proc: 0]solve: 1834.89 [ms]
[OGL LOG][Proc: 0]copy_x_back: 5.215 [ms]
[OGL LOG][lduLduBase.H:380] 
Statistics:
	Time per iteration: 1264 [mu s]
	Time per iteration and DOF: 0.158000 [ns]
	Retrieve results bandwith 3.068000 [GByte/s]
nonehipGKOCG:  Solving for p, Initial residual = 0.0251, Final residual = 6.80746e-05, No Iterations 1451
linear solve p 2008926
time step continuity errors : sum local = 4.47533e-10, global = 3.51795e-22, cumulative = 1.97791e-21
ExecutionTime = 110.66 s  ClockTime = 111 s

Time = 0.0004

Courant Number mean: 0.00450629 max: 0.0914618
DILUPBiCGStab:  Solving for Ux, Initial residual = 0.0219746, Final residual = 1.39497e-06, No Iterations 5
DILUPBiCGStab:  Solving for Uy, Initial residual = 0.0338742, Final residual = 6.59157e-07, No Iterations 5
DILUPBiCGStab:  Solving for Uz, Initial residual = 0.057794, Final residual = 1.42411e-06, No Iterations 5
linear solve U 1687261
[OGL LOG][Proc: 0]global_index_init: 0.016 [ms]
[OGL LOG][Proc: 0]global_index_init: 0.002 [ms]
[OGL LOG][Proc: 0]update_host_matrix_data: 106.058 [ms]
[OGL LOG][Proc: 0]gather_global_matrix: 0 [ms]
[OGL LOG][Proc: 0]generate_distributed_matrix: 39.678 [ms]
[OGL LOG][Proc: 0]init_precond: 0.043 [ms]
[OGL LOG][Proc: 0]generate_solver: 0.002 [ms]
[OGL LOG][Proc: 0]solve: 1827.23 [ms]
[OGL LOG][Proc: 0]copy_x_back: 5.336 [ms]
[OGL LOG][lduLduBase.H:380] 
Statistics:
	Time per iteration: 1259 [mu s]
	Time per iteration and DOF: 0.157375 [ns]
	Retrieve results bandwith 2.998000 [GByte/s]
nonehipGKOCG:  Solving for p, Initial residual = 0.0215065, Final residual = 7.98241e-05, No Iterations 1451
linear solve p 1997356
time step continuity errors : sum local = 5.24761e-10, global = -8.7233e-23, cumulative = 1.89068e-21
[OGL LOG][Proc: 0]global_index_init: 0.016 [ms]
[OGL LOG][Proc: 0]global_index_init: 0.002 [ms]
[OGL LOG][Proc: 0]update_host_matrix_data: 115.507 [ms]
[OGL LOG][Proc: 0]gather_global_matrix: 0 [ms]
[OGL LOG][Proc: 0]generate_distributed_matrix: 39.13 [ms]
[OGL LOG][Proc: 0]init_precond: 0.042 [ms]
[OGL LOG][Proc: 0]generate_solver: 0.002 [ms]
[OGL LOG][Proc: 0]solve: 1839.64 [ms]
[OGL LOG][Proc: 0]copy_x_back: 5.252 [ms]
[OGL LOG][lduLduBase.H:380] 
Statistics:
	Time per iteration: 1267 [mu s]
	Time per iteration and DOF: 0.158375 [ns]
	Retrieve results bandwith 3.046000 [GByte/s]
nonehipGKOCG:  Solving for p, Initial residual = 0.0190183, Final residual = 6.00399e-05, No Iterations 1451
linear solve p 2014909
time step continuity errors : sum local = 3.95524e-10, global = 2.59645e-22, cumulative = 2.15032e-21
ExecutionTime = 117.34 s  ClockTime = 118 s

Time = 0.00045

Courant Number mean: 0.00478573 max: 0.0920367
DILUPBiCGStab:  Solving for Ux, Initial residual = 0.0193074, Final residual = 1.14746e-06, No Iterations 5
DILUPBiCGStab:  Solving for Uy, Initial residual = 0.0293941, Final residual = 5.29236e-07, No Iterations 5
DILUPBiCGStab:  Solving for Uz, Initial residual = 0.0512574, Final residual = 1.14376e-06, No Iterations 5
linear solve U 1686884
[OGL LOG][Proc: 0]global_index_init: 0.021 [ms]
[OGL LOG][Proc: 0]global_index_init: 0.002 [ms]
[OGL LOG][Proc: 0]update_host_matrix_data: 108.403 [ms]
[OGL LOG][Proc: 0]gather_global_matrix: 0 [ms]
[OGL LOG][Proc: 0]generate_distributed_matrix: 40.99 [ms]
[OGL LOG][Proc: 0]init_precond: 0.044 [ms]
[OGL LOG][Proc: 0]generate_solver: 0.002 [ms]
[OGL LOG][Proc: 0]solve: 1830.59 [ms]
[OGL LOG][Proc: 0]copy_x_back: 5.247 [ms]
[OGL LOG][lduLduBase.H:380] 
Statistics:
	Time per iteration: 1261 [mu s]
	Time per iteration and DOF: 0.157625 [ns]
	Retrieve results bandwith 3.049000 [GByte/s]
nonehipGKOCG:  Solving for p, Initial residual = 0.0178777, Final residual = 6.30078e-05, No Iterations 1451
linear solve p 1996468
time step continuity errors : sum local = 4.1526e-10, global = -1.71566e-22, cumulative = 1.97876e-21
[OGL LOG][Proc: 0]global_index_init: 0.024 [ms]
[OGL LOG][Proc: 0]global_index_init: 0.002 [ms]
[OGL LOG][Proc: 0]update_host_matrix_data: 113.4 [ms]
[OGL LOG][Proc: 0]gather_global_matrix: 0 [ms]
[OGL LOG][Proc: 0]generate_distributed_matrix: 39.951 [ms]
[OGL LOG][Proc: 0]init_precond: 0.043 [ms]
[OGL LOG][Proc: 0]generate_solver: 0.002 [ms]
[OGL LOG][Proc: 0]solve: 1838.71 [ms]
[OGL LOG][Proc: 0]copy_x_back: 5.281 [ms]
[OGL LOG][lduLduBase.H:380] 
Statistics:
	Time per iteration: 1267 [mu s]
	Time per iteration and DOF: 0.158375 [ns]
	Retrieve results bandwith 3.029000 [GByte/s]
nonehipGKOCG:  Solving for p, Initial residual = 0.0159174, Final residual = 4.71809e-05, No Iterations 1451
linear solve p 2013237
time step continuity errors : sum local = 3.11393e-10, global = 9.33067e-23, cumulative = 2.07206e-21
ExecutionTime = 124 s  ClockTime = 125 s

Time = 0.0005

Courant Number mean: 0.00504296 max: 0.0925025
DILUPBiCGStab:  Solving for Ux, Initial residual = 0.0172234, Final residual = 9.84007e-07, No Iterations 5
DILUPBiCGStab:  Solving for Uy, Initial residual = 0.0259478, Final residual = 4.44984e-07, No Iterations 5
DILUPBiCGStab:  Solving for Uz, Initial residual = 0.0461494, Final residual = 9.53288e-07, No Iterations 5
linear solve U 1688216
[OGL LOG][Proc: 0]global_index_init: 0.013 [ms]
[OGL LOG][Proc: 0]global_index_init: 0.003 [ms]
[OGL LOG][Proc: 0]update_host_matrix_data: 104.703 [ms]
[OGL LOG][Proc: 0]gather_global_matrix: 0 [ms]
[OGL LOG][Proc: 0]generate_distributed_matrix: 39.608 [ms]
[OGL LOG][Proc: 0]init_precond: 0.043 [ms]
[OGL LOG][Proc: 0]generate_solver: 0.002 [ms]
[OGL LOG][Proc: 0]solve: 1829.64 [ms]
[OGL LOG][Proc: 0]copy_x_back: 5.194 [ms]
[OGL LOG][lduLduBase.H:380] 
Statistics:
	Time per iteration: 1260 [mu s]
	Time per iteration and DOF: 0.157500 [ns]
	Retrieve results bandwith 3.080000 [GByte/s]
nonehipGKOCG:  Solving for p, Initial residual = 0.0149395, Final residual = 5.53626e-05, No Iterations 1451
linear solve p 1997578
time step continuity errors : sum local = 3.65611e-10, global = 1.24546e-22, cumulative = 2.19661e-21
[OGL LOG][Proc: 0]global_index_init: 0.012 [ms]
[OGL LOG][Proc: 0]global_index_init: 0.002 [ms]
[OGL LOG][Proc: 0]update_host_matrix_data: 115.489 [ms]
[OGL LOG][Proc: 0]gather_global_matrix: 0 [ms]
[OGL LOG][Proc: 0]generate_distributed_matrix: 39.15 [ms]
[OGL LOG][Proc: 0]init_precond: 0.044 [ms]
[OGL LOG][Proc: 0]generate_solver: 0.002 [ms]
[OGL LOG][Proc: 0]solve: 1778.92 [ms]
[OGL LOG][Proc: 0]copy_x_back: 5.224 [ms]
[OGL LOG][lduLduBase.H:380] 
Statistics:
	Time per iteration: 1277 [mu s]
	Time per iteration and DOF: 0.159625 [ns]
	Retrieve results bandwith 3.062000 [GByte/s]
nonehipGKOCG:  Solving for p, Initial residual = 0.0133834, Final residual = 9.61127e-05, No Iterations 1393
linear solve p 1954721
time step continuity errors : sum local = 6.356e-10, global = 1.90587e-22, cumulative = 2.3872e-21
ExecutionTime = 130.66 s  ClockTime = 132 s

Time = 0.00055

Courant Number mean: 0.00528118 max: 0.0928899
DILUPBiCGStab:  Solving for Ux, Initial residual = 0.0155463, Final residual = 8.70801e-07, No Iterations 5
DILUPBiCGStab:  Solving for Uy, Initial residual = 0.0232126, Final residual = 3.94631e-07, No Iterations 5
DILUPBiCGStab:  Solving for Uz, Initial residual = 0.0417965, Final residual = 8.24931e-07, No Iterations 5
linear solve U 1687824
[OGL LOG][Proc: 0]global_index_init: 0.014 [ms]
[OGL LOG][Proc: 0]global_index_init: 0.002 [ms]
[OGL LOG][Proc: 0]update_host_matrix_data: 108.48 [ms]
[OGL LOG][Proc: 0]gather_global_matrix: 0 [ms]
[OGL LOG][Proc: 0]generate_distributed_matrix: 40.565 [ms]
[OGL LOG][Proc: 0]init_precond: 0.041 [ms]
[OGL LOG][Proc: 0]generate_solver: 0.002 [ms]
[OGL LOG][Proc: 0]solve: 1806.13 [ms]
[OGL LOG][Proc: 0]copy_x_back: 5.173 [ms]
[OGL LOG][lduLduBase.H:380] 
Statistics:
	Time per iteration: 1262 [mu s]
	Time per iteration and DOF: 0.157750 [ns]
	Retrieve results bandwith 3.092000 [GByte/s]
nonehipGKOCG:  Solving for p, Initial residual = 0.0130328, Final residual = 6.21268e-05, No Iterations 1431
linear solve p 1970272
time step continuity errors : sum local = 4.11093e-10, global = 4.26595e-22, cumulative = 2.81379e-21
[OGL LOG][Proc: 0]global_index_init: 0.026 [ms]
[OGL LOG][Proc: 0]global_index_init: 0.002 [ms]
[OGL LOG][Proc: 0]update_host_matrix_data: 113.383 [ms]
[OGL LOG][Proc: 0]gather_global_matrix: 0 [ms]
[OGL LOG][Proc: 0]generate_distributed_matrix: 40.211 [ms]
[OGL LOG][Proc: 0]init_precond: 0.041 [ms]
[OGL LOG][Proc: 0]generate_solver: 0.002 [ms]
[OGL LOG][Proc: 0]solve: 1809.2 [ms]
[OGL LOG][Proc: 0]copy_x_back: 5.179 [ms]
[OGL LOG][lduLduBase.H:380] 
Statistics:
	Time per iteration: 1268 [mu s]
	Time per iteration and DOF: 0.158500 [ns]
	Retrieve results bandwith 3.089000 [GByte/s]
nonehipGKOCG:  Solving for p, Initial residual = 0.0116865, Final residual = 6.23125e-05, No Iterations 1426
linear solve p 1982709
time step continuity errors : sum local = 4.12747e-10, global = 3.03214e-22, cumulative = 3.11701e-21
ExecutionTime = 137.31 s  ClockTime = 138 s

Time = 0.0006

Courant Number mean: 0.00550393 max: 0.0932187
DILUPBiCGStab:  Solving for Ux, Initial residual = 0.0141661, Final residual = 8.04754e-07, No Iterations 5
DILUPBiCGStab:  Solving for Uy, Initial residual = 0.0209898, Final residual = 3.53473e-07, No Iterations 5
DILUPBiCGStab:  Solving for Uz, Initial residual = 0.0383226, Final residual = 7.1271e-07, No Iterations 5
linear solve U 1687559
[OGL LOG][Proc: 0]global_index_init: 0.012 [ms]
[OGL LOG][Proc: 0]global_index_init: 0.002 [ms]
[OGL LOG][Proc: 0]update_host_matrix_data: 104.468 [ms]
[OGL LOG][Proc: 0]gather_global_matrix: 0 [ms]
[OGL LOG][Proc: 0]generate_distributed_matrix: 39.448 [ms]
[OGL LOG][Proc: 0]init_precond: 0.043 [ms]
[OGL LOG][Proc: 0]generate_solver: 0.002 [ms]
[OGL LOG][Proc: 0]solve: 1799.32 [ms]
[OGL LOG][Proc: 0]copy_x_back: 5.601 [ms]
[OGL LOG][lduLduBase.H:380] 
Statistics:
	Time per iteration: 1261 [mu s]
	Time per iteration and DOF: 0.157625 [ns]
	Retrieve results bandwith 2.856000 [GByte/s]
nonehipGKOCG:  Solving for p, Initial residual = 0.0114545, Final residual = 6.70006e-05, No Iterations 1426
linear solve p 1969145
time step continuity errors : sum local = 4.44081e-10, global = 4.00821e-22, cumulative = 3.51783e-21
[OGL LOG][Proc: 0]global_index_init: 0.013 [ms]
[OGL LOG][Proc: 0]global_index_init: 0.002 [ms]
[OGL LOG][Proc: 0]update_host_matrix_data: 115.478 [ms]
[OGL LOG][Proc: 0]gather_global_matrix: 0 [ms]
[OGL LOG][Proc: 0]generate_distributed_matrix: 39.138 [ms]
[OGL LOG][Proc: 0]init_precond: 0.041 [ms]
[OGL LOG][Proc: 0]generate_solver: 0.002 [ms]
[OGL LOG][Proc: 0]solve: 1809.03 [ms]
[OGL LOG][Proc: 0]copy_x_back: 5.275 [ms]
[OGL LOG][lduLduBase.H:380] 
Statistics:
	Time per iteration: 1268 [mu s]
	Time per iteration and DOF: 0.158500 [ns]
	Retrieve results bandwith 3.033000 [GByte/s]
nonehipGKOCG:  Solving for p, Initial residual = 0.0103116, Final residual = 5.14919e-05, No Iterations 1426
linear solve p 1984728
time step continuity errors : sum local = 3.41606e-10, global = 4.39183e-22, cumulative = 3.95701e-21
ExecutionTime = 143.96 s  ClockTime = 145 s

Time = 0.00065

Courant Number mean: 0.00571312 max: 0.0935022
DILUPBiCGStab:  Solving for Ux, Initial residual = 0.0130114, Final residual = 7.46746e-07, No Iterations 5
DILUPBiCGStab:  Solving for Uy, Initial residual = 0.0191476, Final residual = 3.21518e-07, No Iterations 5
DILUPBiCGStab:  Solving for Uz, Initial residual = 0.0353048, Final residual = 6.26798e-07, No Iterations 5
linear solve U 1687760
[OGL LOG][Proc: 0]global_index_init: 0.014 [ms]
[OGL LOG][Proc: 0]global_index_init: 0.002 [ms]
[OGL LOG][Proc: 0]update_host_matrix_data: 106.945 [ms]
[OGL LOG][Proc: 0]gather_global_matrix: 0 [ms]
[OGL LOG][Proc: 0]generate_distributed_matrix: 40.984 [ms]
[OGL LOG][Proc: 0]init_precond: 0.043 [ms]
[OGL LOG][Proc: 0]generate_solver: 0.002 [ms]
[OGL LOG][Proc: 0]solve: 1800.63 [ms]
[OGL LOG][Proc: 0]copy_x_back: 5.265 [ms]
[OGL LOG][lduLduBase.H:380] 
Statistics:
	Time per iteration: 1262 [mu s]
	Time per iteration and DOF: 0.157750 [ns]
	Retrieve results bandwith 3.038000 [GByte/s]
nonehipGKOCG:  Solving for p, Initial residual = 0.0101516, Final residual = 5.81417e-05, No Iterations 1426
linear solve p 1966131
time step continuity errors : sum local = 3.85925e-10, global = -1.38845e-22, cumulative = 3.81817e-21
[OGL LOG][Proc: 0]global_index_init: 0.013 [ms]
[OGL LOG][Proc: 0]global_index_init: 0.003 [ms]
[OGL LOG][Proc: 0]update_host_matrix_data: 113.045 [ms]
[OGL LOG][Proc: 0]gather_global_matrix: 0 [ms]
[OGL LOG][Proc: 0]generate_distributed_matrix: 39.892 [ms]
[OGL LOG][Proc: 0]init_precond: 0.043 [ms]
[OGL LOG][Proc: 0]generate_solver: 0.002 [ms]
[OGL LOG][Proc: 0]solve: 1815.73 [ms]
[OGL LOG][Proc: 0]copy_x_back: 5.195 [ms]
[OGL LOG][lduLduBase.H:380] 
Statistics:
	Time per iteration: 1273 [mu s]
	Time per iteration and DOF: 0.159125 [ns]
	Retrieve results bandwith 3.079000 [GByte/s]
nonehipGKOCG:  Solving for p, Initial residual = 0.0091619, Final residual = 4.71985e-05, No Iterations 1426
linear solve p 1988979
time step continuity errors : sum local = 3.13541e-10, global = -5.82872e-24, cumulative = 3.81234e-21
ExecutionTime = 150.6 s  ClockTime = 152 s

Time = 0.0007

Courant Number mean: 0.00591034 max: 0.09375
DILUPBiCGStab:  Solving for Ux, Initial residual = 0.0120285, Final residual = 6.94882e-07, No Iterations 5
DILUPBiCGStab:  Solving for Uy, Initial residual = 0.0175961, Final residual = 2.94525e-07, No Iterations 5
DILUPBiCGStab:  Solving for Uz, Initial residual = 0.0327343, Final residual = 5.5689e-07, No Iterations 5
linear solve U 1687480
[OGL LOG][Proc: 0]global_index_init: 0.019 [ms]
[OGL LOG][Proc: 0]global_index_init: 0.002 [ms]
[OGL LOG][Proc: 0]update_host_matrix_data: 105.214 [ms]
[OGL LOG][Proc: 0]gather_global_matrix: 0 [ms]
[OGL LOG][Proc: 0]generate_distributed_matrix: 39.535 [ms]
[OGL LOG][Proc: 0]init_precond: 0.042 [ms]
[OGL LOG][Proc: 0]generate_solver: 0.002 [ms]
[OGL LOG][Proc: 0]solve: 1797.58 [ms]
[OGL LOG][Proc: 0]copy_x_back: 5.183 [ms]
[OGL LOG][lduLduBase.H:380] 
Statistics:
	Time per iteration: 1260 [mu s]
	Time per iteration and DOF: 0.157500 [ns]
	Retrieve results bandwith 3.087000 [GByte/s]
nonehipGKOCG:  Solving for p, Initial residual = 0.00909792, Final residual = 5.08994e-05, No Iterations 1426
linear solve p 1966081
time step continuity errors : sum local = 3.38301e-10, global = 2.05099e-22, cumulative = 4.01744e-21
[OGL LOG][Proc: 0]global_index_init: 0.013 [ms]
[OGL LOG][Proc: 0]global_index_init: 0.002 [ms]
[OGL LOG][Proc: 0]update_host_matrix_data: 116.306 [ms]
[OGL LOG][Proc: 0]gather_global_matrix: 0 [ms]
[OGL LOG][Proc: 0]generate_distributed_matrix: 39.316 [ms]
[OGL LOG][Proc: 0]init_precond: 0.042 [ms]
[OGL LOG][Proc: 0]generate_solver: 0.002 [ms]
[OGL LOG][Proc: 0]solve: 1806.87 [ms]
[OGL LOG][Proc: 0]copy_x_back: 5.188 [ms]
[OGL LOG][lduLduBase.H:380] 
Statistics:
	Time per iteration: 1267 [mu s]
	Time per iteration and DOF: 0.158375 [ns]
	Retrieve results bandwith 3.084000 [GByte/s]
nonehipGKOCG:  Solving for p, Initial residual = 0.00821623, Final residual = 4.03365e-05, No Iterations 1426
linear solve p 1982994
time step continuity errors : sum local = 2.68288e-10, global = -3.88014e-23, cumulative = 3.97863e-21
ExecutionTime = 157.28 s  ClockTime = 158 s

Time = 0.00075

Courant Number mean: 0.00609762 max: 0.0939689
DILUPBiCGStab:  Solving for Ux, Initial residual = 0.0111818, Final residual = 6.47398e-07, No Iterations 5
DILUPBiCGStab:  Solving for Uy, Initial residual = 0.0162716, Final residual = 2.71977e-07, No Iterations 5
DILUPBiCGStab:  Solving for Uz, Initial residual = 0.0305059, Final residual = 4.98216e-07, No Iterations 5
linear solve U 1689623
[OGL LOG][Proc: 0]global_index_init: 0.026 [ms]
[OGL LOG][Proc: 0]global_index_init: 0.002 [ms]
[OGL LOG][Proc: 0]update_host_matrix_data: 109.805 [ms]
[OGL LOG][Proc: 0]gather_global_matrix: 0 [ms]
[OGL LOG][Proc: 0]generate_distributed_matrix: 40.597 [ms]
[OGL LOG][Proc: 0]init_precond: 0.042 [ms]
[OGL LOG][Proc: 0]generate_solver: 0.002 [ms]
[OGL LOG][Proc: 0]solve: 1793.13 [ms]
[OGL LOG][Proc: 0]copy_x_back: 5.096 [ms]
[OGL LOG][lduLduBase.H:380] 
Statistics:
	Time per iteration: 1257 [mu s]
	Time per iteration and DOF: 0.157125 [ns]
	Retrieve results bandwith 3.139000 [GByte/s]
nonehipGKOCG:  Solving for p, Initial residual = 0.00821702, Final residual = 4.45776e-05, No Iterations 1426
linear solve p 1958214
time step continuity errors : sum local = 2.96641e-10, global = -1.39732e-22, cumulative = 3.8389e-21
[OGL LOG][Proc: 0]global_index_init: 0.016 [ms]
[OGL LOG][Proc: 0]global_index_init: 0.002 [ms]
[OGL LOG][Proc: 0]update_host_matrix_data: 112.874 [ms]
[OGL LOG][Proc: 0]gather_global_matrix: 0 [ms]
[OGL LOG][Proc: 0]generate_distributed_matrix: 39.89 [ms]
[OGL LOG][Proc: 0]init_precond: 0.043 [ms]
[OGL LOG][Proc: 0]generate_solver: 0.002 [ms]
[OGL LOG][Proc: 0]solve: 1749.2 [ms]
[OGL LOG][Proc: 0]copy_x_back: 5.162 [ms]
[OGL LOG][lduLduBase.H:380] 
Statistics:
	Time per iteration: 1277 [mu s]
	Time per iteration and DOF: 0.159625 [ns]
	Retrieve results bandwith 3.099000 [GByte/s]
nonehipGKOCG:  Solving for p, Initial residual = 0.00743021, Final residual = 9.51124e-05, No Iterations 1369
linear solve p 1922207
time step continuity errors : sum local = 6.33389e-10, global = 6.01619e-23, cumulative = 3.89906e-21
ExecutionTime = 163.88 s  ClockTime = 165 s

Time = 0.0008

Courant Number mean: 0.00627538 max: 0.0941642
DILUPBiCGStab:  Solving for Ux, Initial residual = 0.0104453, Final residual = 6.03315e-07, No Iterations 5
DILUPBiCGStab:  Solving for Uy, Initial residual = 0.015128, Final residual = 2.52262e-07, No Iterations 5
DILUPBiCGStab:  Solving for Uz, Initial residual = 0.0285262, Final residual = 4.52587e-07, No Iterations 5
linear solve U 1693685
[OGL LOG][Proc: 0]global_index_init: 0.016 [ms]
[OGL LOG][Proc: 0]global_index_init: 0.002 [ms]
[OGL LOG][Proc: 0]update_host_matrix_data: 104.815 [ms]
[OGL LOG][Proc: 0]gather_global_matrix: 0 [ms]
[OGL LOG][Proc: 0]generate_distributed_matrix: 39.763 [ms]
[OGL LOG][Proc: 0]init_precond: 0.043 [ms]
[OGL LOG][Proc: 0]generate_solver: 0.003 [ms]
[OGL LOG][Proc: 0]solve: 1778.61 [ms]
[OGL LOG][Proc: 0]copy_x_back: 5.205 [ms]
[OGL LOG][lduLduBase.H:380] 
Statistics:
	Time per iteration: 1265 [mu s]
	Time per iteration and DOF: 0.158125 [ns]
	Retrieve results bandwith 3.073000 [GByte/s]
nonehipGKOCG:  Solving for p, Initial residual = 0.00761389, Final residual = 3.59123e-05, No Iterations 1405
linear solve p 1946895
time step continuity errors : sum local = 2.39283e-10, global = 1.10159e-22, cumulative = 4.00922e-21
[OGL LOG][Proc: 0]global_index_init: 0.013 [ms]
[OGL LOG][Proc: 0]global_index_init: 0.002 [ms]
[OGL LOG][Proc: 0]update_host_matrix_data: 115.701 [ms]
[OGL LOG][Proc: 0]gather_global_matrix: 0 [ms]
[OGL LOG][Proc: 0]generate_distributed_matrix: 39.348 [ms]
[OGL LOG][Proc: 0]init_precond: 0.042 [ms]
[OGL LOG][Proc: 0]generate_solver: 0.002 [ms]
[OGL LOG][Proc: 0]solve: 1784.84 [ms]
[OGL LOG][Proc: 0]copy_x_back: 5.061 [ms]
[OGL LOG][lduLduBase.H:380] 
Statistics:
	Time per iteration: 1273 [mu s]
	Time per iteration and DOF: 0.159125 [ns]
	Retrieve results bandwith 3.161000 [GByte/s]
nonehipGKOCG:  Solving for p, Initial residual = 0.00685934, Final residual = 3.29898e-05, No Iterations 1401
linear solve p 1983176
time step continuity errors : sum local = 2.1993e-10, global = -1.85133e-22, cumulative = 3.82409e-21
ExecutionTime = 170.53 s  ClockTime = 172 s

Time = 0.00085

Courant Number mean: 0.00644514 max: 0.0943398
DILUPBiCGStab:  Solving for Ux, Initial residual = 0.00979746, Final residual = 5.6251e-07, No Iterations 5
DILUPBiCGStab:  Solving for Uy, Initial residual = 0.0141302, Final residual = 2.34916e-07, No Iterations 5
DILUPBiCGStab:  Solving for Uz, Initial residual = 0.0267982, Final residual = 4.08848e-07, No Iterations 5
linear solve U 1684342
[OGL LOG][Proc: 0]global_index_init: 0.009 [ms]
[OGL LOG][Proc: 0]global_index_init: 0.002 [ms]
[OGL LOG][Proc: 0]update_host_matrix_data: 148.139 [ms]
[OGL LOG][Proc: 0]gather_global_matrix: 0 [ms]
[OGL LOG][Proc: 0]generate_distributed_matrix: 47.474 [ms]
[OGL LOG][Proc: 0]init_precond: 0.043 [ms]
[OGL LOG][Proc: 0]generate_solver: 0.002 [ms]
[OGL LOG][Proc: 0]solve: 1770.89 [ms]
[OGL LOG][Proc: 0]copy_x_back: 5.222 [ms]
[OGL LOG][lduLduBase.H:380] 
Statistics:
	Time per iteration: 1264 [mu s]
	Time per iteration and DOF: 0.158000 [ns]
	Retrieve results bandwith 3.063000 [GByte/s]
nonehipGKOCG:  Solving for p, Initial residual = 0.00690051, Final residual = 4.142e-05, No Iterations 1401
linear solve p 1982182
time step continuity errors : sum local = 2.76239e-10, global = -5.71829e-23, cumulative = 3.76691e-21
[OGL LOG][Proc: 0]global_index_init: 0.008 [ms]
[OGL LOG][Proc: 0]global_index_init: 0.002 [ms]
[OGL LOG][Proc: 0]update_host_matrix_data: 113.189 [ms]
[OGL LOG][Proc: 0]gather_global_matrix: 0 [ms]
[OGL LOG][Proc: 0]generate_distributed_matrix: 40.212 [ms]
[OGL LOG][Proc: 0]init_precond: 0.042 [ms]
[OGL LOG][Proc: 0]generate_solver: 0.002 [ms]
[OGL LOG][Proc: 0]solve: 1787.53 [ms]
[OGL LOG][Proc: 0]copy_x_back: 5.314 [ms]
[OGL LOG][lduLduBase.H:380] 
Statistics:
	Time per iteration: 1275 [mu s]
	Time per iteration and DOF: 0.159375 [ns]
	Retrieve results bandwith 3.010000 [GByte/s]
nonehipGKOCG:  Solving for p, Initial residual = 0.00624351, Final residual = 3.05737e-05, No Iterations 1401
linear solve p 1961129
time step continuity errors : sum local = 2.0401e-10, global = 5.76885e-23, cumulative = 3.8246e-21
ExecutionTime = 177.17 s  ClockTime = 178 s

Time = 0.0009

Courant Number mean: 0.00660769 max: 0.0944988
DILUPBiCGStab:  Solving for Ux, Initial residual = 0.00922441, Final residual = 5.24935e-07, No Iterations 5
DILUPBiCGStab:  Solving for Uy, Initial residual = 0.0132524, Final residual = 2.19511e-07, No Iterations 5
DILUPBiCGStab:  Solving for Uz, Initial residual = 0.0252787, Final residual = 3.72709e-07, No Iterations 5
linear solve U 1687740
[OGL LOG][Proc: 0]global_index_init: 0.03 [ms]
[OGL LOG][Proc: 0]global_index_init: 0.002 [ms]
[OGL LOG][Proc: 0]update_host_matrix_data: 105.051 [ms]
[OGL LOG][Proc: 0]gather_global_matrix: 0 [ms]
[OGL LOG][Proc: 0]generate_distributed_matrix: 39.153 [ms]
[OGL LOG][Proc: 0]init_precond: 0.043 [ms]
[OGL LOG][Proc: 0]generate_solver: 0.002 [ms]
[OGL LOG][Proc: 0]solve: 1771.89 [ms]
[OGL LOG][Proc: 0]copy_x_back: 5.082 [ms]
[OGL LOG][lduLduBase.H:380] 
Statistics:
	Time per iteration: 1264 [mu s]
	Time per iteration and DOF: 0.158000 [ns]
	Retrieve results bandwith 3.148000 [GByte/s]
nonehipGKOCG:  Solving for p, Initial residual = 0.00634487, Final residual = 3.45244e-05, No Iterations 1401
linear solve p 1940481
time step continuity errors : sum local = 2.30456e-10, global = -4.87176e-23, cumulative = 3.77588e-21
[OGL LOG][Proc: 0]global_index_init: 0.011 [ms]
[OGL LOG][Proc: 0]global_index_init: 0.001 [ms]
[OGL LOG][Proc: 0]update_host_matrix_data: 115.481 [ms]
[OGL LOG][Proc: 0]gather_global_matrix: 0 [ms]
[OGL LOG][Proc: 0]generate_distributed_matrix: 39.116 [ms]
[OGL LOG][Proc: 0]init_precond: 0.041 [ms]
[OGL LOG][Proc: 0]generate_solver: 0.002 [ms]
[OGL LOG][Proc: 0]solve: 1495.64 [ms]
[OGL LOG][Proc: 0]copy_x_back: 5.181 [ms]
[OGL LOG][lduLduBase.H:380] 
Statistics:
	Time per iteration: 1334 [mu s]
	Time per iteration and DOF: 0.166750 [ns]
	Retrieve results bandwith 3.088000 [GByte/s]
nonehipGKOCG:  Solving for p, Initial residual = 0.00574907, Final residual = 9.8511e-05, No Iterations 1121
linear solve p 1671898
time step continuity errors : sum local = 6.62854e-10, global = 9.64131e-23, cumulative = 3.87229e-21
ExecutionTime = 183.49 s  ClockTime = 185 s

Time = 0.00095

Courant Number mean: 0.00676324 max: 0.0946436
DILUPBiCGStab:  Solving for Ux, Initial residual = 0.00871173, Final residual = 4.90454e-07, No Iterations 5
DILUPBiCGStab:  Solving for Uy, Initial residual = 0.0124749, Final residual = 2.05726e-07, No Iterations 5
DILUPBiCGStab:  Solving for Uz, Initial residual = 0.0239534, Final residual = 3.34085e-07, No Iterations 5
linear solve U 1686837
[OGL LOG][Proc: 0]global_index_init: 0.014 [ms]
[OGL LOG][Proc: 0]global_index_init: 0.001 [ms]
[OGL LOG][Proc: 0]update_host_matrix_data: 109.078 [ms]
[OGL LOG][Proc: 0]gather_global_matrix: 0 [ms]
[OGL LOG][Proc: 0]generate_distributed_matrix: 41.149 [ms]
[OGL LOG][Proc: 0]init_precond: 0.042 [ms]
[OGL LOG][Proc: 0]generate_solver: 0.002 [ms]
[OGL LOG][Proc: 0]solve: 1277.59 [ms]
[OGL LOG][Proc: 0]copy_x_back: 5.64 [ms]
[OGL LOG][lduLduBase.H:380] 
Statistics:
	Time per iteration: 1381 [mu s]
	Time per iteration and DOF: 0.172625 [ns]
	Retrieve results bandwith 2.836000 [GByte/s]
nonehipGKOCG:  Solving for p, Initial residual = 0.00601445, Final residual = 1.52534e-05, No Iterations 925
linear solve p 1444552
time step continuity errors : sum local = 1.08192e-10, global = -1.78624e-22, cumulative = 3.69367e-21
[OGL LOG][Proc: 0]global_index_init: 0.013 [ms]
[OGL LOG][Proc: 0]global_index_init: 0.002 [ms]
[OGL LOG][Proc: 0]update_host_matrix_data: 113.104 [ms]
[OGL LOG][Proc: 0]gather_global_matrix: 0 [ms]
[OGL LOG][Proc: 0]generate_distributed_matrix: 40.018 [ms]
[OGL LOG][Proc: 0]init_precond: 0.047 [ms]
[OGL LOG][Proc: 0]generate_solver: 0.002 [ms]
[OGL LOG][Proc: 0]solve: 1093.13 [ms]
[OGL LOG][Proc: 0]copy_x_back: 5.095 [ms]
[OGL LOG][lduLduBase.H:380] 
Statistics:
	Time per iteration: 1475 [mu s]
	Time per iteration and DOF: 0.184375 [ns]
	Retrieve results bandwith 3.140000 [GByte/s]
nonehipGKOCG:  Solving for p, Initial residual = 0.00542086, Final residual = 1.01041e-05, No Iterations 741
linear solve p 1266075
time step continuity errors : sum local = 7.4169e-11, global = 1.55673e-22, cumulative = 3.84934e-21
ExecutionTime = 188.89 s  ClockTime = 190 s

Time = 0.001

Courant Number mean: 0.00691282 max: 0.0947763
DILUPBiCGStab:  Solving for Ux, Initial residual = 0.00825314, Final residual = 4.58795e-07, No Iterations 5
DILUPBiCGStab:  Solving for Uy, Initial residual = 0.0117796, Final residual = 1.93139e-07, No Iterations 5
DILUPBiCGStab:  Solving for Uz, Initial residual = 0.0227724, Final residual = 3.10197e-07, No Iterations 5
linear solve U 1692061
[OGL LOG][Proc: 0]global_index_init: 0.03 [ms]
[OGL LOG][Proc: 0]global_index_init: 0.003 [ms]
[OGL LOG][Proc: 0]update_host_matrix_data: 104.761 [ms]
[OGL LOG][Proc: 0]gather_global_matrix: 0 [ms]
[OGL LOG][Proc: 0]generate_distributed_matrix: 39.476 [ms]
[OGL LOG][Proc: 0]init_precond: 0.042 [ms]
[OGL LOG][Proc: 0]generate_solver: 0.002 [ms]
[OGL LOG][Proc: 0]solve: 943.917 [ms]
[OGL LOG][Proc: 0]copy_x_back: 5.272 [ms]
[OGL LOG][lduLduBase.H:380] 
Statistics:
	Time per iteration: 1547 [mu s]
	Time per iteration and DOF: 0.193375 [ns]
	Retrieve results bandwith 3.034000 [GByte/s]
nonehipGKOCG:  Solving for p, Initial residual = 0.00541534, Final residual = 2.2697e-05, No Iterations 610
linear solve p 1112177
time step continuity errors : sum local = 1.53326e-10, global = 3.21483e-22, cumulative = 4.17082e-21
[OGL LOG][Proc: 0]global_index_init: 0.014 [ms]
[OGL LOG][Proc: 0]global_index_init: 0.002 [ms]
[OGL LOG][Proc: 0]update_host_matrix_data: 115.448 [ms]
[OGL LOG][Proc: 0]gather_global_matrix: 0 [ms]
[OGL LOG][Proc: 0]generate_distributed_matrix: 39.052 [ms]
[OGL LOG][Proc: 0]init_precond: 0.043 [ms]
[OGL LOG][Proc: 0]generate_solver: 0.002 [ms]
[OGL LOG][Proc: 0]solve: 890.041 [ms]
[OGL LOG][Proc: 0]copy_x_back: 5.179 [ms]
[OGL LOG][lduLduBase.H:380] 
Statistics:
	Time per iteration: 1609 [mu s]
	Time per iteration and DOF: 0.201125 [ns]
	Retrieve results bandwith 3.089000 [GByte/s]
nonehipGKOCG:  Solving for p, Initial residual = 0.00489717, Final residual = 7.19653e-05, No Iterations 553
linear solve p 1064660
time step continuity errors : sum local = 4.86304e-10, global = 3.5379e-22, cumulative = 4.52461e-21
ExecutionTime = 193.79 s  ClockTime = 195 s

End

Finalising parallel run
================================================================================
hash: a7698d29c58cd3b9cc33272245b5996e
/*---------------------------------------------------------------------------*\
| =========                 |                                                 |
| \\      /  F ield         | OpenFOAM: The Open Source CFD Toolbox           |
|  \\    /   O peration     | Version:  v2106                                 |
|   \\  /    A nd           | Website:  www.openfoam.com                      |
|    \\/     M anipulation  |                                                 |
\*---------------------------------------------------------------------------*/
Build  : f815a12bba-20210902 OPENFOAM=2106
Arch   : "LSB;label=32;scalar=64"
Exec   : icoFoam -parallel
Date   : Jun 23 2022
Time   : 11:31:25
Host   : nla-gpu2.ianm.kit.edu
PID    : 23431
I/O    : uncollated
Case   : /home/greole/data/code/ogl_labbook/lidDrivenCavity/simple/Variation_mesh/200/Variation_matrix_solver/CG_NoPrecond_HIP/Variation_mpiRank_gko/8/base
nProcs : 8
Hosts  :
(
    (nla-gpu2.ianm.kit.edu 8)
)
Pstream initialized with:
    floatTransfer      : 0
    nProcsSimpleSum    : 0
    commsType          : nonBlocking
    polling iterations : 0
trapFpe: Floating point exception trapping enabled (FOAM_SIGFPE).
fileModificationChecking : Monitoring run-time modified files using timeStampMaster (fileModificationSkew 5, maxFileModificationPolls 20)
allowSystemOperations : Allowing user-supplied system call operations

// * * * * * * * * * * * * * * * * * * * * * * * * * * * * * * * * * * * * * //
Create time

Create mesh for time = 0


PISO: Operating solver in PISO mode

Reading transportProperties

Reading field p

Reading field U

Reading/calculating face flux field phi


Starting time loop

Time = 5e-05

Courant Number mean: 0 max: 0
DILUPBiCGStab:  Solving for Ux, Initial residual = 1, Final residual = 0.000101849, No Iterations 5
DILUPBiCGStab:  Solving for Uy:  solution singularity
DILUPBiCGStab:  Solving for Uz:  solution singularity
linear solve U 433103
[OGL LOG][Proc: 0]global_index_init: 6.254 [ms]
[OGL LOG][Proc: 0]global_index_init: 0.003 [ms]
[OGL LOG][Proc: 0]init_host_sparsity_pattern: 19356.3 [ms]
[OGL LOG][Proc: 0]update_host_matrix_data: 141.114 [ms]
[OGL LOG][Proc: 0]convert_coo_to_csr: 536.756 [ms]
[OGL LOG][lduLduBase.H:153] Initialising OGL
	Version:  484b851
	branch: multi_gpu 
	Ginkgo version: 1.5.0(develop)
	MPI is GPU aware: 1)
	Forces host buffer based communication: 1
[OGL LOG][Proc: 0]gather_global_matrix: 0 [ms]
[OGL LOG][Proc: 0]generate_distributed_matrix: 53.879 [ms]
[OGL LOG][Proc: 0]init_precond: 0.091 [ms]
[OGL LOG][Proc: 0]generate_solver: 0.032 [ms]
[OGL LOG][Proc: 0]solve: 1896.07 [ms]
[OGL LOG][Proc: 0]copy_x_back: 2.71 [ms]
[OGL LOG][lduLduBase.H:380] 
Statistics:
	Time per iteration: 1174 [mu s]
	Time per iteration and DOF: 0.146750 [ns]
	Retrieve results bandwith 2.952000 [GByte/s]
nonehipGKOCG:  Solving for p, Initial residual = 1, Final residual = 9.96646e-05, No Iterations 1615
linear solve p 22930716
time step continuity errors : sum local = 6.58851e-10, global = 4.61136e-22, cumulative = 4.61136e-22
[OGL LOG][Proc: 0]global_index_init: 0.033 [ms]
[OGL LOG][Proc: 0]global_index_init: 0.002 [ms]
[OGL LOG][Proc: 0]update_host_matrix_data: 51.015 [ms]
[OGL LOG][Proc: 0]gather_global_matrix: 0 [ms]
[OGL LOG][Proc: 0]generate_distributed_matrix: 25 [ms]
[OGL LOG][Proc: 0]init_precond: 0.05 [ms]
[OGL LOG][Proc: 0]generate_solver: 0.003 [ms]
[OGL LOG][Proc: 0]solve: 1427.93 [ms]
[OGL LOG][Proc: 0]copy_x_back: 2.723 [ms]
[OGL LOG][lduLduBase.H:380] 
Statistics:
	Time per iteration: 891 [mu s]
	Time per iteration and DOF: 0.111375 [ns]
	Retrieve results bandwith 2.937000 [GByte/s]
nonehipGKOCG:  Solving for p, Initial residual = 0.64488, Final residual = 7.60165e-05, No Iterations 1601
linear solve p 1527680
time step continuity errors : sum local = 7.25993e-10, global = 7.19421e-23, cumulative = 5.33078e-22
ExecutionTime = 30.16 s  ClockTime = 31 s

Time = 0.0001

Courant Number mean: 0.00156137 max: 0.0657803
DILUPBiCGStab:  Solving for Ux, Initial residual = 0.189842, Final residual = 5.80522e-05, No Iterations 5
DILUPBiCGStab:  Solving for Uy, Initial residual = 0.330048, Final residual = 4.20705e-05, No Iterations 5
DILUPBiCGStab:  Solving for Uz, Initial residual = 0.992951, Final residual = 0.000118349, No Iterations 5
linear solve U 847173
[OGL LOG][Proc: 0]global_index_init: 0.019 [ms]
[OGL LOG][Proc: 0]global_index_init: 0.002 [ms]
[OGL LOG][Proc: 0]update_host_matrix_data: 50.623 [ms]
[OGL LOG][Proc: 0]gather_global_matrix: 0 [ms]
[OGL LOG][Proc: 0]generate_distributed_matrix: 22.938 [ms]
[OGL LOG][Proc: 0]init_precond: 0.041 [ms]
[OGL LOG][Proc: 0]generate_solver: 0.002 [ms]
[OGL LOG][Proc: 0]solve: 1432.4 [ms]
[OGL LOG][Proc: 0]copy_x_back: 2.771 [ms]
[OGL LOG][lduLduBase.H:380] 
Statistics:
	Time per iteration: 894 [mu s]
	Time per iteration and DOF: 0.111750 [ns]
	Retrieve results bandwith 2.887000 [GByte/s]
nonehipGKOCG:  Solving for p, Initial residual = 0.509209, Final residual = 3.46328e-05, No Iterations 1601
linear solve p 1524637
time step continuity errors : sum local = 3.22061e-10, global = 1.13005e-23, cumulative = 5.44379e-22
[OGL LOG][Proc: 0]global_index_init: 0.043 [ms]
[OGL LOG][Proc: 0]global_index_init: 0.003 [ms]
[OGL LOG][Proc: 0]update_host_matrix_data: 50.81 [ms]
[OGL LOG][Proc: 0]gather_global_matrix: 0 [ms]
[OGL LOG][Proc: 0]generate_distributed_matrix: 23.086 [ms]
[OGL LOG][Proc: 0]init_precond: 0.043 [ms]
[OGL LOG][Proc: 0]generate_solver: 0.002 [ms]
[OGL LOG][Proc: 0]solve: 1431.86 [ms]
[OGL LOG][Proc: 0]copy_x_back: 2.717 [ms]
[OGL LOG][lduLduBase.H:380] 
Statistics:
	Time per iteration: 894 [mu s]
	Time per iteration and DOF: 0.111750 [ns]
	Retrieve results bandwith 2.944000 [GByte/s]
nonehipGKOCG:  Solving for p, Initial residual = 0.419895, Final residual = 3.28174e-05, No Iterations 1601
linear solve p 1526912
time step continuity errors : sum local = 3.14614e-10, global = 7.6224e-23, cumulative = 6.20603e-22
ExecutionTime = 34.51 s  ClockTime = 35 s

Time = 0.00015

Courant Number mean: 0.0024116 max: 0.0810517
DILUPBiCGStab:  Solving for Ux, Initial residual = 0.08035, Final residual = 1.98699e-05, No Iterations 5
DILUPBiCGStab:  Solving for Uy, Initial residual = 0.137292, Final residual = 8.30118e-06, No Iterations 5
DILUPBiCGStab:  Solving for Uz, Initial residual = 0.090275, Final residual = 2.52591e-05, No Iterations 5
linear solve U 847898
[OGL LOG][Proc: 0]global_index_init: 0.024 [ms]
[OGL LOG][Proc: 0]global_index_init: 0.002 [ms]
[OGL LOG][Proc: 0]update_host_matrix_data: 49.311 [ms]
[OGL LOG][Proc: 0]gather_global_matrix: 0 [ms]
[OGL LOG][Proc: 0]generate_distributed_matrix: 23.261 [ms]
[OGL LOG][Proc: 0]init_precond: 0.043 [ms]
[OGL LOG][Proc: 0]generate_solver: 0.002 [ms]
[OGL LOG][Proc: 0]solve: 1391.03 [ms]
[OGL LOG][Proc: 0]copy_x_back: 2.859 [ms]
[OGL LOG][lduLduBase.H:380] 
Statistics:
	Time per iteration: 905 [mu s]
	Time per iteration and DOF: 0.113125 [ns]
	Retrieve results bandwith 2.798000 [GByte/s]
nonehipGKOCG:  Solving for p, Initial residual = 0.25253, Final residual = 8.51349e-05, No Iterations 1537
linear solve p 1492425
time step continuity errors : sum local = 6.12204e-10, global = -6.90515e-23, cumulative = 5.51551e-22
[OGL LOG][Proc: 0]global_index_init: 0.031 [ms]
[OGL LOG][Proc: 0]global_index_init: 0.002 [ms]
[OGL LOG][Proc: 0]update_host_matrix_data: 50.951 [ms]
[OGL LOG][Proc: 0]gather_global_matrix: 0 [ms]
[OGL LOG][Proc: 0]generate_distributed_matrix: 23.35 [ms]
[OGL LOG][Proc: 0]init_precond: 0.042 [ms]
[OGL LOG][Proc: 0]generate_solver: 0.002 [ms]
[OGL LOG][Proc: 0]solve: 1368.73 [ms]
[OGL LOG][Proc: 0]copy_x_back: 2.766 [ms]
[OGL LOG][lduLduBase.H:380] 
Statistics:
	Time per iteration: 896 [mu s]
	Time per iteration and DOF: 0.112000 [ns]
	Retrieve results bandwith 2.892000 [GByte/s]
nonehipGKOCG:  Solving for p, Initial residual = 0.208917, Final residual = 9.91585e-05, No Iterations 1526
linear solve p 1463816
time step continuity errors : sum local = 7.05325e-10, global = 6.01359e-23, cumulative = 6.11687e-22
ExecutionTime = 38.8 s  ClockTime = 39 s

Time = 0.0002

Courant Number mean: 0.00299655 max: 0.0859678
DILUPBiCGStab:  Solving for Ux, Initial residual = 0.0511426, Final residual = 9.40436e-06, No Iterations 5
DILUPBiCGStab:  Solving for Uy, Initial residual = 0.0858847, Final residual = 5.37959e-06, No Iterations 5
DILUPBiCGStab:  Solving for Uz, Initial residual = 0.111559, Final residual = 1.47283e-05, No Iterations 5
linear solve U 846922
[OGL LOG][Proc: 0]global_index_init: 0.032 [ms]
[OGL LOG][Proc: 0]global_index_init: 0.002 [ms]
[OGL LOG][Proc: 0]update_host_matrix_data: 50.567 [ms]
[OGL LOG][Proc: 0]gather_global_matrix: 0 [ms]
[OGL LOG][Proc: 0]generate_distributed_matrix: 23.216 [ms]
[OGL LOG][Proc: 0]init_precond: 0.047 [ms]
[OGL LOG][Proc: 0]generate_solver: 0.002 [ms]
[OGL LOG][Proc: 0]solve: 1387.93 [ms]
[OGL LOG][Proc: 0]copy_x_back: 2.739 [ms]
[OGL LOG][lduLduBase.H:380] 
Statistics:
	Time per iteration: 909 [mu s]
	Time per iteration and DOF: 0.113625 [ns]
	Retrieve results bandwith 2.920000 [GByte/s]
nonehipGKOCG:  Solving for p, Initial residual = 0.12252, Final residual = 6.26743e-05, No Iterations 1526
linear solve p 1479552
time step continuity errors : sum local = 4.23637e-10, global = 1.91926e-22, cumulative = 8.03613e-22
[OGL LOG][Proc: 0]global_index_init: 0.042 [ms]
[OGL LOG][Proc: 0]global_index_init: 0.003 [ms]
[OGL LOG][Proc: 0]update_host_matrix_data: 51.132 [ms]
[OGL LOG][Proc: 0]gather_global_matrix: 0 [ms]
[OGL LOG][Proc: 0]generate_distributed_matrix: 23.128 [ms]
[OGL LOG][Proc: 0]init_precond: 0.046 [ms]
[OGL LOG][Proc: 0]generate_solver: 0.002 [ms]
[OGL LOG][Proc: 0]solve: 1374.57 [ms]
[OGL LOG][Proc: 0]copy_x_back: 2.731 [ms]
[OGL LOG][lduLduBase.H:380] 
Statistics:
	Time per iteration: 900 [mu s]
	Time per iteration and DOF: 0.112500 [ns]
	Retrieve results bandwith 2.929000 [GByte/s]
nonehipGKOCG:  Solving for p, Initial residual = 0.0992352, Final residual = 5.22076e-05, No Iterations 1526
linear solve p 1470060
time step continuity errors : sum local = 3.56829e-10, global = 3.59328e-23, cumulative = 8.39546e-22
ExecutionTime = 43.06 s  ClockTime = 44 s

Time = 0.00025

Courant Number mean: 0.00346139 max: 0.0883161
DILUPBiCGStab:  Solving for Ux, Initial residual = 0.0380466, Final residual = 4.58246e-06, No Iterations 5
DILUPBiCGStab:  Solving for Uy, Initial residual = 0.061993, Final residual = 4.10973e-06, No Iterations 5
DILUPBiCGStab:  Solving for Uz, Initial residual = 0.0916754, Final residual = 7.58938e-06, No Iterations 5
linear solve U 850498
[OGL LOG][Proc: 0]global_index_init: 0.028 [ms]
[OGL LOG][Proc: 0]global_index_init: 0.003 [ms]
[OGL LOG][Proc: 0]update_host_matrix_data: 50.585 [ms]
[OGL LOG][Proc: 0]gather_global_matrix: 0 [ms]
[OGL LOG][Proc: 0]generate_distributed_matrix: 22.439 [ms]
[OGL LOG][Proc: 0]init_precond: 0.044 [ms]
[OGL LOG][Proc: 0]generate_solver: 0.002 [ms]
[OGL LOG][Proc: 0]solve: 1383.79 [ms]
[OGL LOG][Proc: 0]copy_x_back: 2.738 [ms]
[OGL LOG][lduLduBase.H:380] 
Statistics:
	Time per iteration: 906 [mu s]
	Time per iteration and DOF: 0.113250 [ns]
	Retrieve results bandwith 2.921000 [GByte/s]
nonehipGKOCG:  Solving for p, Initial residual = 0.0621041, Final residual = 4.26072e-05, No Iterations 1526
linear solve p 1485292
time step continuity errors : sum local = 2.81167e-10, global = -9.85011e-23, cumulative = 7.41045e-22
[OGL LOG][Proc: 0]global_index_init: 0.026 [ms]
[OGL LOG][Proc: 0]global_index_init: 0.003 [ms]
[OGL LOG][Proc: 0]update_host_matrix_data: 50.922 [ms]
[OGL LOG][Proc: 0]gather_global_matrix: 0 [ms]
[OGL LOG][Proc: 0]generate_distributed_matrix: 23.798 [ms]
[OGL LOG][Proc: 0]init_precond: 0.045 [ms]
[OGL LOG][Proc: 0]generate_solver: 0.003 [ms]
[OGL LOG][Proc: 0]solve: 1374.41 [ms]
[OGL LOG][Proc: 0]copy_x_back: 2.741 [ms]
[OGL LOG][lduLduBase.H:380] 
Statistics:
	Time per iteration: 900 [mu s]
	Time per iteration and DOF: 0.112500 [ns]
	Retrieve results bandwith 2.918000 [GByte/s]
nonehipGKOCG:  Solving for p, Initial residual = 0.05222, Final residual = 3.52012e-05, No Iterations 1526
linear solve p 1470330
time step continuity errors : sum local = 2.32647e-10, global = 9.1561e-24, cumulative = 7.50201e-22
ExecutionTime = 47.31 s  ClockTime = 48 s

Time = 0.0003

Courant Number mean: 0.00385428 max: 0.0897419
DILUPBiCGStab:  Solving for Ux, Initial residual = 0.0304959, Final residual = 2.79359e-06, No Iterations 5
DILUPBiCGStab:  Solving for Uy, Initial residual = 0.0485946, Final residual = 3.03702e-06, No Iterations 5
DILUPBiCGStab:  Solving for Uz, Initial residual = 0.0768784, Final residual = 4.95337e-06, No Iterations 5
linear solve U 846168
[OGL LOG][Proc: 0]global_index_init: 0.019 [ms]
[OGL LOG][Proc: 0]global_index_init: 0.003 [ms]
[OGL LOG][Proc: 0]update_host_matrix_data: 49.067 [ms]
[OGL LOG][Proc: 0]gather_global_matrix: 0 [ms]
[OGL LOG][Proc: 0]generate_distributed_matrix: 23.03 [ms]
[OGL LOG][Proc: 0]init_precond: 0.048 [ms]
[OGL LOG][Proc: 0]generate_solver: 0.002 [ms]
[OGL LOG][Proc: 0]solve: 1322.79 [ms]
[OGL LOG][Proc: 0]copy_x_back: 2.742 [ms]
[OGL LOG][lduLduBase.H:380] 
Statistics:
	Time per iteration: 902 [mu s]
	Time per iteration and DOF: 0.112750 [ns]
	Retrieve results bandwith 2.917000 [GByte/s]
nonehipGKOCG:  Solving for p, Initial residual = 0.0392574, Final residual = 8.8951e-05, No Iterations 1465
linear solve p 1415398
time step continuity errors : sum local = 5.81809e-10, global = 8.42904e-23, cumulative = 8.34491e-22
[OGL LOG][Proc: 0]global_index_init: 0.043 [ms]
[OGL LOG][Proc: 0]global_index_init: 0.003 [ms]
[OGL LOG][Proc: 0]update_host_matrix_data: 51.287 [ms]
[OGL LOG][Proc: 0]gather_global_matrix: 0 [ms]
[OGL LOG][Proc: 0]generate_distributed_matrix: 22.761 [ms]
[OGL LOG][Proc: 0]init_precond: 0.045 [ms]
[OGL LOG][Proc: 0]generate_solver: 0.002 [ms]
[OGL LOG][Proc: 0]solve: 1309.34 [ms]
[OGL LOG][Proc: 0]copy_x_back: 2.743 [ms]
[OGL LOG][lduLduBase.H:380] 
Statistics:
	Time per iteration: 902 [mu s]
	Time per iteration and DOF: 0.112750 [ns]
	Retrieve results bandwith 2.916000 [GByte/s]
nonehipGKOCG:  Solving for p, Initial residual = 0.0332061, Final residual = 9.78342e-05, No Iterations 1451
linear solve p 1404021
time step continuity errors : sum local = 6.42674e-10, global = 3.79828e-23, cumulative = 8.72474e-22
ExecutionTime = 51.42 s  ClockTime = 52 s

Time = 0.00035

Courant Number mean: 0.00419844 max: 0.0907273
DILUPBiCGStab:  Solving for Ux, Initial residual = 0.0255229, Final residual = 2.23708e-06, No Iterations 5
DILUPBiCGStab:  Solving for Uy, Initial residual = 0.039928, Final residual = 2.39988e-06, No Iterations 5
DILUPBiCGStab:  Solving for Uz, Initial residual = 0.0659111, Final residual = 3.18924e-06, No Iterations 5
linear solve U 845820
[OGL LOG][Proc: 0]global_index_init: 0.026 [ms]
[OGL LOG][Proc: 0]global_index_init: 0.003 [ms]
[OGL LOG][Proc: 0]update_host_matrix_data: 50.93 [ms]
[OGL LOG][Proc: 0]gather_global_matrix: 0 [ms]
[OGL LOG][Proc: 0]generate_distributed_matrix: 23.129 [ms]
[OGL LOG][Proc: 0]init_precond: 0.048 [ms]
[OGL LOG][Proc: 0]generate_solver: 0.002 [ms]
[OGL LOG][Proc: 0]solve: 1318.02 [ms]
[OGL LOG][Proc: 0]copy_x_back: 2.955 [ms]
[OGL LOG][lduLduBase.H:380] 
Statistics:
	Time per iteration: 908 [mu s]
	Time per iteration and DOF: 0.113500 [ns]
	Retrieve results bandwith 2.707000 [GByte/s]
nonehipGKOCG:  Solving for p, Initial residual = 0.0289349, Final residual = 8.22212e-05, No Iterations 1451
linear solve p 1419268
time step continuity errors : sum local = 5.39539e-10, global = 3.03624e-22, cumulative = 1.1761e-21
[OGL LOG][Proc: 0]global_index_init: 0.032 [ms]
[OGL LOG][Proc: 0]global_index_init: 0.002 [ms]
[OGL LOG][Proc: 0]update_host_matrix_data: 51.677 [ms]
[OGL LOG][Proc: 0]gather_global_matrix: 0 [ms]
[OGL LOG][Proc: 0]generate_distributed_matrix: 22.823 [ms]
[OGL LOG][Proc: 0]init_precond: 0.052 [ms]
[OGL LOG][Proc: 0]generate_solver: 0.002 [ms]
[OGL LOG][Proc: 0]solve: 1310.59 [ms]
[OGL LOG][Proc: 0]copy_x_back: 2.762 [ms]
[OGL LOG][lduLduBase.H:380] 
Statistics:
	Time per iteration: 903 [mu s]
	Time per iteration and DOF: 0.112875 [ns]
	Retrieve results bandwith 2.896000 [GByte/s]
nonehipGKOCG:  Solving for p, Initial residual = 0.0251223, Final residual = 6.85215e-05, No Iterations 1451
linear solve p 1426108
time step continuity errors : sum local = 4.50481e-10, global = 7.84389e-23, cumulative = 1.25454e-21
ExecutionTime = 55.56 s  ClockTime = 56 s

Time = 0.0004

Courant Number mean: 0.00450622 max: 0.0914617
DILUPBiCGStab:  Solving for Ux, Initial residual = 0.0219749, Final residual = 1.93463e-06, No Iterations 5
DILUPBiCGStab:  Solving for Uy, Initial residual = 0.0338746, Final residual = 1.90699e-06, No Iterations 5
DILUPBiCGStab:  Solving for Uz, Initial residual = 0.0579259, Final residual = 2.35004e-06, No Iterations 5
linear solve U 846306
[OGL LOG][Proc: 0]global_index_init: 0.036 [ms]
[OGL LOG][Proc: 0]global_index_init: 0.003 [ms]
[OGL LOG][Proc: 0]update_host_matrix_data: 50.634 [ms]
[OGL LOG][Proc: 0]gather_global_matrix: 0 [ms]
[OGL LOG][Proc: 0]generate_distributed_matrix: 23.006 [ms]
[OGL LOG][Proc: 0]init_precond: 0.043 [ms]
[OGL LOG][Proc: 0]generate_solver: 0.002 [ms]
[OGL LOG][Proc: 0]solve: 1298.95 [ms]
[OGL LOG][Proc: 0]copy_x_back: 2.723 [ms]
[OGL LOG][lduLduBase.H:380] 
Statistics:
	Time per iteration: 895 [mu s]
	Time per iteration and DOF: 0.111875 [ns]
	Retrieve results bandwith 2.937000 [GByte/s]
nonehipGKOCG:  Solving for p, Initial residual = 0.021531, Final residual = 7.74279e-05, No Iterations 1451
linear solve p 1390068
time step continuity errors : sum local = 5.09021e-10, global = -4.80468e-23, cumulative = 1.20649e-21
[OGL LOG][Proc: 0]global_index_init: 0.031 [ms]
[OGL LOG][Proc: 0]global_index_init: 0.006 [ms]
[OGL LOG][Proc: 0]update_host_matrix_data: 51.295 [ms]
[OGL LOG][Proc: 0]gather_global_matrix: 0 [ms]
[OGL LOG][Proc: 0]generate_distributed_matrix: 22.986 [ms]
[OGL LOG][Proc: 0]init_precond: 0.046 [ms]
[OGL LOG][Proc: 0]generate_solver: 0.002 [ms]
[OGL LOG][Proc: 0]solve: 1325.37 [ms]
[OGL LOG][Proc: 0]copy_x_back: 2.731 [ms]
[OGL LOG][lduLduBase.H:380] 
Statistics:
	Time per iteration: 913 [mu s]
	Time per iteration and DOF: 0.114125 [ns]
	Retrieve results bandwith 2.929000 [GByte/s]
nonehipGKOCG:  Solving for p, Initial residual = 0.0190424, Final residual = 6.11207e-05, No Iterations 1451
linear solve p 1420347
time step continuity errors : sum local = 4.02654e-10, global = -9.21061e-23, cumulative = 1.11438e-21
ExecutionTime = 59.64 s  ClockTime = 60 s

Time = 0.00045

Courant Number mean: 0.00478567 max: 0.0920366
DILUPBiCGStab:  Solving for Ux, Initial residual = 0.0193077, Final residual = 1.71863e-06, No Iterations 5
DILUPBiCGStab:  Solving for Uy, Initial residual = 0.0293945, Final residual = 1.59194e-06, No Iterations 5
DILUPBiCGStab:  Solving for Uz, Initial residual = 0.0513664, Final residual = 1.789e-06, No Iterations 5
linear solve U 854582
[OGL LOG][Proc: 0]global_index_init: 0.031 [ms]
[OGL LOG][Proc: 0]global_index_init: 0.003 [ms]
[OGL LOG][Proc: 0]update_host_matrix_data: 49.386 [ms]
[OGL LOG][Proc: 0]gather_global_matrix: 0 [ms]
[OGL LOG][Proc: 0]generate_distributed_matrix: 23.089 [ms]
[OGL LOG][Proc: 0]init_precond: 0.044 [ms]
[OGL LOG][Proc: 0]generate_solver: 0.003 [ms]
[OGL LOG][Proc: 0]solve: 1312 [ms]
[OGL LOG][Proc: 0]copy_x_back: 2.735 [ms]
[OGL LOG][lduLduBase.H:380] 
Statistics:
	Time per iteration: 904 [mu s]
	Time per iteration and DOF: 0.113000 [ns]
	Retrieve results bandwith 2.925000 [GByte/s]
nonehipGKOCG:  Solving for p, Initial residual = 0.0178986, Final residual = 6.24692e-05, No Iterations 1451
linear solve p 1413531
time step continuity errors : sum local = 4.11719e-10, global = 3.55095e-22, cumulative = 1.46948e-21
[OGL LOG][Proc: 0]global_index_init: 0.039 [ms]
[OGL LOG][Proc: 0]global_index_init: 0.003 [ms]
[OGL LOG][Proc: 0]update_host_matrix_data: 51.047 [ms]
[OGL LOG][Proc: 0]gather_global_matrix: 0 [ms]
[OGL LOG][Proc: 0]generate_distributed_matrix: 23.031 [ms]
[OGL LOG][Proc: 0]init_precond: 0.044 [ms]
[OGL LOG][Proc: 0]generate_solver: 0.002 [ms]
[OGL LOG][Proc: 0]solve: 1309.34 [ms]
[OGL LOG][Proc: 0]copy_x_back: 2.78 [ms]
[OGL LOG][lduLduBase.H:380] 
Statistics:
	Time per iteration: 902 [mu s]
	Time per iteration and DOF: 0.112750 [ns]
	Retrieve results bandwith 2.877000 [GByte/s]
nonehipGKOCG:  Solving for p, Initial residual = 0.0159385, Final residual = 4.87181e-05, No Iterations 1451
linear solve p 1404001
time step continuity errors : sum local = 3.21545e-10, global = 1.77471e-22, cumulative = 1.64695e-21
ExecutionTime = 63.75 s  ClockTime = 65 s

Time = 0.0005

Courant Number mean: 0.0050429 max: 0.0925024
DILUPBiCGStab:  Solving for Ux, Initial residual = 0.0172236, Final residual = 1.52589e-06, No Iterations 5
DILUPBiCGStab:  Solving for Uy, Initial residual = 0.0259481, Final residual = 1.35632e-06, No Iterations 5
DILUPBiCGStab:  Solving for Uz, Initial residual = 0.0462427, Final residual = 1.4333e-06, No Iterations 5
linear solve U 852605
[OGL LOG][Proc: 0]global_index_init: 0.03 [ms]
[OGL LOG][Proc: 0]global_index_init: 0.003 [ms]
[OGL LOG][Proc: 0]update_host_matrix_data: 51.193 [ms]
[OGL LOG][Proc: 0]gather_global_matrix: 0 [ms]
[OGL LOG][Proc: 0]generate_distributed_matrix: 22.679 [ms]
[OGL LOG][Proc: 0]init_precond: 0.048 [ms]
[OGL LOG][Proc: 0]generate_solver: 0.002 [ms]
[OGL LOG][Proc: 0]solve: 1317.5 [ms]
[OGL LOG][Proc: 0]copy_x_back: 2.794 [ms]
[OGL LOG][lduLduBase.H:380] 
Statistics:
	Time per iteration: 907 [mu s]
	Time per iteration and DOF: 0.113375 [ns]
	Retrieve results bandwith 2.863000 [GByte/s]
nonehipGKOCG:  Solving for p, Initial residual = 0.0149569, Final residual = 5.41746e-05, No Iterations 1451
linear solve p 1409770
time step continuity errors : sum local = 3.57772e-10, global = -2.77757e-22, cumulative = 1.36919e-21
[OGL LOG][Proc: 0]global_index_init: 0.031 [ms]
[OGL LOG][Proc: 0]global_index_init: 0.003 [ms]
[OGL LOG][Proc: 0]update_host_matrix_data: 50.976 [ms]
[OGL LOG][Proc: 0]gather_global_matrix: 0 [ms]
[OGL LOG][Proc: 0]generate_distributed_matrix: 21.805 [ms]
[OGL LOG][Proc: 0]init_precond: 0.043 [ms]
[OGL LOG][Proc: 0]generate_solver: 0.002 [ms]
[OGL LOG][Proc: 0]solve: 1270.98 [ms]
[OGL LOG][Proc: 0]copy_x_back: 2.716 [ms]
[OGL LOG][lduLduBase.H:380] 
Statistics:
	Time per iteration: 912 [mu s]
	Time per iteration and DOF: 0.114000 [ns]
	Retrieve results bandwith 2.945000 [GByte/s]
nonehipGKOCG:  Solving for p, Initial residual = 0.0134005, Final residual = 9.64331e-05, No Iterations 1393
linear solve p 1365026
time step continuity errors : sum local = 6.3773e-10, global = -5.80558e-23, cumulative = 1.31114e-21
ExecutionTime = 67.84 s  ClockTime = 69 s

Time = 0.00055

Courant Number mean: 0.00528112 max: 0.0928897
DILUPBiCGStab:  Solving for Ux, Initial residual = 0.0155465, Final residual = 1.35748e-06, No Iterations 5
DILUPBiCGStab:  Solving for Uy, Initial residual = 0.0232129, Final residual = 1.18241e-06, No Iterations 5
DILUPBiCGStab:  Solving for Uz, Initial residual = 0.0418743, Final residual = 1.18609e-06, No Iterations 5
linear solve U 846815
[OGL LOG][Proc: 0]global_index_init: 0.029 [ms]
[OGL LOG][Proc: 0]global_index_init: 0.003 [ms]
[OGL LOG][Proc: 0]update_host_matrix_data: 51.157 [ms]
[OGL LOG][Proc: 0]gather_global_matrix: 0 [ms]
[OGL LOG][Proc: 0]generate_distributed_matrix: 23.026 [ms]
[OGL LOG][Proc: 0]init_precond: 0.041 [ms]
[OGL LOG][Proc: 0]generate_solver: 0.002 [ms]
[OGL LOG][Proc: 0]solve: 1304.81 [ms]
[OGL LOG][Proc: 0]copy_x_back: 2.806 [ms]
[OGL LOG][lduLduBase.H:380] 
Statistics:
	Time per iteration: 911 [mu s]
	Time per iteration and DOF: 0.113875 [ns]
	Retrieve results bandwith 2.851000 [GByte/s]
nonehipGKOCG:  Solving for p, Initial residual = 0.0130461, Final residual = 6.20309e-05, No Iterations 1431
linear solve p 1405333
time step continuity errors : sum local = 4.10464e-10, global = 2.90894e-23, cumulative = 1.34023e-21
[OGL LOG][Proc: 0]global_index_init: 0.04 [ms]
[OGL LOG][Proc: 0]global_index_init: 0.004 [ms]
[OGL LOG][Proc: 0]update_host_matrix_data: 51.065 [ms]
[OGL LOG][Proc: 0]gather_global_matrix: 0 [ms]
[OGL LOG][Proc: 0]generate_distributed_matrix: 23.034 [ms]
[OGL LOG][Proc: 0]init_precond: 0.045 [ms]
[OGL LOG][Proc: 0]generate_solver: 0.002 [ms]
[OGL LOG][Proc: 0]solve: 1292.64 [ms]
[OGL LOG][Proc: 0]copy_x_back: 2.777 [ms]
[OGL LOG][lduLduBase.H:380] 
Statistics:
	Time per iteration: 906 [mu s]
	Time per iteration and DOF: 0.113250 [ns]
	Retrieve results bandwith 2.880000 [GByte/s]
nonehipGKOCG:  Solving for p, Initial residual = 0.0116999, Final residual = 6.21602e-05, No Iterations 1426
linear solve p 1387357
time step continuity errors : sum local = 4.11743e-10, global = 1.80435e-22, cumulative = 1.52066e-21
ExecutionTime = 71.94 s  ClockTime = 73 s

Time = 0.0006

Courant Number mean: 0.00550386 max: 0.0932185
DILUPBiCGStab:  Solving for Ux, Initial residual = 0.0141662, Final residual = 1.21341e-06, No Iterations 5
DILUPBiCGStab:  Solving for Uy, Initial residual = 0.0209901, Final residual = 1.04436e-06, No Iterations 5
DILUPBiCGStab:  Solving for Uz, Initial residual = 0.0383912, Final residual = 9.91429e-07, No Iterations 5
linear solve U 844978
[OGL LOG][Proc: 0]global_index_init: 0.03 [ms]
[OGL LOG][Proc: 0]global_index_init: 0.003 [ms]
[OGL LOG][Proc: 0]update_host_matrix_data: 48.905 [ms]
[OGL LOG][Proc: 0]gather_global_matrix: 0 [ms]
[OGL LOG][Proc: 0]generate_distributed_matrix: 23.194 [ms]
[OGL LOG][Proc: 0]init_precond: 0.044 [ms]
[OGL LOG][Proc: 0]generate_solver: 0.002 [ms]
[OGL LOG][Proc: 0]solve: 1293.33 [ms]
[OGL LOG][Proc: 0]copy_x_back: 2.706 [ms]
[OGL LOG][lduLduBase.H:380] 
Statistics:
	Time per iteration: 906 [mu s]
	Time per iteration and DOF: 0.113250 [ns]
	Retrieve results bandwith 2.956000 [GByte/s]
nonehipGKOCG:  Solving for p, Initial residual = 0.0114651, Final residual = 6.71105e-05, No Iterations 1426
linear solve p 1387331
time step continuity errors : sum local = 4.44813e-10, global = 1.95628e-22, cumulative = 1.71629e-21
[OGL LOG][Proc: 0]global_index_init: 0.03 [ms]
[OGL LOG][Proc: 0]global_index_init: 0.003 [ms]
[OGL LOG][Proc: 0]update_host_matrix_data: 51 [ms]
[OGL LOG][Proc: 0]gather_global_matrix: 0 [ms]
[OGL LOG][Proc: 0]generate_distributed_matrix: 23.16 [ms]
[OGL LOG][Proc: 0]init_precond: 0.043 [ms]
[OGL LOG][Proc: 0]generate_solver: 0.002 [ms]
[OGL LOG][Proc: 0]solve: 1285.89 [ms]
[OGL LOG][Proc: 0]copy_x_back: 2.713 [ms]
[OGL LOG][lduLduBase.H:380] 
Statistics:
	Time per iteration: 901 [mu s]
	Time per iteration and DOF: 0.112625 [ns]
	Retrieve results bandwith 2.948000 [GByte/s]
nonehipGKOCG:  Solving for p, Initial residual = 0.0103223, Final residual = 5.16395e-05, No Iterations 1426
linear solve p 1380705
time step continuity errors : sum local = 3.42589e-10, global = 4.77934e-22, cumulative = 2.19423e-21
ExecutionTime = 76.02 s  ClockTime = 77 s

Time = 0.00065

Courant Number mean: 0.00571305 max: 0.093502
DILUPBiCGStab:  Solving for Ux, Initial residual = 0.0130115, Final residual = 1.08862e-06, No Iterations 5
DILUPBiCGStab:  Solving for Uy, Initial residual = 0.0191478, Final residual = 9.33336e-07, No Iterations 5
DILUPBiCGStab:  Solving for Uz, Initial residual = 0.0353647, Final residual = 8.48475e-07, No Iterations 5
linear solve U 847401
[OGL LOG][Proc: 0]global_index_init: 0.032 [ms]
[OGL LOG][Proc: 0]global_index_init: 0.002 [ms]
[OGL LOG][Proc: 0]update_host_matrix_data: 50.477 [ms]
[OGL LOG][Proc: 0]gather_global_matrix: 0 [ms]
[OGL LOG][Proc: 0]generate_distributed_matrix: 23.384 [ms]
[OGL LOG][Proc: 0]init_precond: 0.04 [ms]
[OGL LOG][Proc: 0]generate_solver: 0.002 [ms]
[OGL LOG][Proc: 0]solve: 1300.51 [ms]
[OGL LOG][Proc: 0]copy_x_back: 2.874 [ms]
[OGL LOG][lduLduBase.H:380] 
Statistics:
	Time per iteration: 911 [mu s]
	Time per iteration and DOF: 0.113875 [ns]
	Retrieve results bandwith 2.783000 [GByte/s]
nonehipGKOCG:  Solving for p, Initial residual = 0.0101608, Final residual = 5.78784e-05, No Iterations 1426
linear solve p 1402054
time step continuity errors : sum local = 3.84181e-10, global = -1.15067e-22, cumulative = 2.07916e-21
[OGL LOG][Proc: 0]global_index_init: 0.027 [ms]
[OGL LOG][Proc: 0]global_index_init: 0.003 [ms]
[OGL LOG][Proc: 0]update_host_matrix_data: 51.213 [ms]
[OGL LOG][Proc: 0]gather_global_matrix: 0 [ms]
[OGL LOG][Proc: 0]generate_distributed_matrix: 23.135 [ms]
[OGL LOG][Proc: 0]init_precond: 0.043 [ms]
[OGL LOG][Proc: 0]generate_solver: 0.003 [ms]
[OGL LOG][Proc: 0]solve: 1288.03 [ms]
[OGL LOG][Proc: 0]copy_x_back: 2.734 [ms]
[OGL LOG][lduLduBase.H:380] 
Statistics:
	Time per iteration: 903 [mu s]
	Time per iteration and DOF: 0.112875 [ns]
	Retrieve results bandwith 2.926000 [GByte/s]
nonehipGKOCG:  Solving for p, Initial residual = 0.0091709, Final residual = 4.72697e-05, No Iterations 1426
linear solve p 1383519
time step continuity errors : sum local = 3.14017e-10, global = -1.93389e-22, cumulative = 1.88577e-21
ExecutionTime = 80.09 s  ClockTime = 81 s

Time = 0.0007

Courant Number mean: 0.00591027 max: 0.0937498
DILUPBiCGStab:  Solving for Ux, Initial residual = 0.0120287, Final residual = 9.81352e-07, No Iterations 5
DILUPBiCGStab:  Solving for Uy, Initial residual = 0.0175963, Final residual = 8.41346e-07, No Iterations 5
DILUPBiCGStab:  Solving for Uz, Initial residual = 0.0327873, Final residual = 7.36672e-07, No Iterations 5
linear solve U 846311
[OGL LOG][Proc: 0]global_index_init: 0.032 [ms]
[OGL LOG][Proc: 0]global_index_init: 0.003 [ms]
[OGL LOG][Proc: 0]update_host_matrix_data: 50.715 [ms]
[OGL LOG][Proc: 0]gather_global_matrix: 0 [ms]
[OGL LOG][Proc: 0]generate_distributed_matrix: 22.949 [ms]
[OGL LOG][Proc: 0]init_precond: 0.045 [ms]
[OGL LOG][Proc: 0]generate_solver: 0.002 [ms]
[OGL LOG][Proc: 0]solve: 1289.43 [ms]
[OGL LOG][Proc: 0]copy_x_back: 2.72 [ms]
[OGL LOG][lduLduBase.H:380] 
Statistics:
	Time per iteration: 904 [mu s]
	Time per iteration and DOF: 0.113000 [ns]
	Retrieve results bandwith 2.941000 [GByte/s]
nonehipGKOCG:  Solving for p, Initial residual = 0.00910654, Final residual = 5.09727e-05, No Iterations 1426
linear solve p 1380793
time step continuity errors : sum local = 3.38792e-10, global = -8.2719e-23, cumulative = 1.80305e-21
[OGL LOG][Proc: 0]global_index_init: 0.027 [ms]
[OGL LOG][Proc: 0]global_index_init: 0.004 [ms]
[OGL LOG][Proc: 0]update_host_matrix_data: 50.992 [ms]
[OGL LOG][Proc: 0]gather_global_matrix: 0 [ms]
[OGL LOG][Proc: 0]generate_distributed_matrix: 22.999 [ms]
[OGL LOG][Proc: 0]init_precond: 0.047 [ms]
[OGL LOG][Proc: 0]generate_solver: 0.003 [ms]
[OGL LOG][Proc: 0]solve: 1299.49 [ms]
[OGL LOG][Proc: 0]copy_x_back: 2.74 [ms]
[OGL LOG][lduLduBase.H:380] 
Statistics:
	Time per iteration: 911 [mu s]
	Time per iteration and DOF: 0.113875 [ns]
	Retrieve results bandwith 2.919000 [GByte/s]
nonehipGKOCG:  Solving for p, Initial residual = 0.00822472, Final residual = 4.05216e-05, No Iterations 1426
linear solve p 1394482
time step continuity errors : sum local = 2.69522e-10, global = 2.11615e-22, cumulative = 2.01467e-21
ExecutionTime = 84.19 s  ClockTime = 85 s

Time = 0.00075

Courant Number mean: 0.00609756 max: 0.0939687
DILUPBiCGStab:  Solving for Ux, Initial residual = 0.011182, Final residual = 8.88925e-07, No Iterations 5
DILUPBiCGStab:  Solving for Uy, Initial residual = 0.0162718, Final residual = 7.6408e-07, No Iterations 5
DILUPBiCGStab:  Solving for Uz, Initial residual = 0.0305533, Final residual = 6.47328e-07, No Iterations 5
linear solve U 849016
[OGL LOG][Proc: 0]global_index_init: 0.028 [ms]
[OGL LOG][Proc: 0]global_index_init: 0.003 [ms]
[OGL LOG][Proc: 0]update_host_matrix_data: 48.901 [ms]
[OGL LOG][Proc: 0]gather_global_matrix: 0 [ms]
[OGL LOG][Proc: 0]generate_distributed_matrix: 23.012 [ms]
[OGL LOG][Proc: 0]init_precond: 0.048 [ms]
[OGL LOG][Proc: 0]generate_solver: 0.002 [ms]
[OGL LOG][Proc: 0]solve: 1299.74 [ms]
[OGL LOG][Proc: 0]copy_x_back: 2.748 [ms]
[OGL LOG][lduLduBase.H:380] 
Statistics:
	Time per iteration: 911 [mu s]
	Time per iteration and DOF: 0.113875 [ns]
	Retrieve results bandwith 2.911000 [GByte/s]
nonehipGKOCG:  Solving for p, Initial residual = 0.00822485, Final residual = 4.46756e-05, No Iterations 1426
linear solve p 1400997
time step continuity errors : sum local = 2.97296e-10, global = -2.02726e-22, cumulative = 1.81194e-21
[OGL LOG][Proc: 0]global_index_init: 0.032 [ms]
[OGL LOG][Proc: 0]global_index_init: 0.003 [ms]
[OGL LOG][Proc: 0]update_host_matrix_data: 51.274 [ms]
[OGL LOG][Proc: 0]gather_global_matrix: 0 [ms]
[OGL LOG][Proc: 0]generate_distributed_matrix: 22.937 [ms]
[OGL LOG][Proc: 0]init_precond: 0.046 [ms]
[OGL LOG][Proc: 0]generate_solver: 0.003 [ms]
[OGL LOG][Proc: 0]solve: 1241.95 [ms]
[OGL LOG][Proc: 0]copy_x_back: 2.77 [ms]
[OGL LOG][lduLduBase.H:380] 
Statistics:
	Time per iteration: 907 [mu s]
	Time per iteration and DOF: 0.113375 [ns]
	Retrieve results bandwith 2.888000 [GByte/s]
nonehipGKOCG:  Solving for p, Initial residual = 0.00743791, Final residual = 9.5565e-05, No Iterations 1369
linear solve p 1337726
time step continuity errors : sum local = 6.36407e-10, global = -9.98128e-23, cumulative = 1.71213e-21
ExecutionTime = 88.24 s  ClockTime = 89 s

Time = 0.0008

Courant Number mean: 0.00627532 max: 0.094164
DILUPBiCGStab:  Solving for Ux, Initial residual = 0.0104455, Final residual = 8.08994e-07, No Iterations 5
DILUPBiCGStab:  Solving for Uy, Initial residual = 0.0151282, Final residual = 6.98199e-07, No Iterations 5
DILUPBiCGStab:  Solving for Uz, Initial residual = 0.028568, Final residual = 5.79673e-07, No Iterations 5
linear solve U 845512
[OGL LOG][Proc: 0]global_index_init: 0.03 [ms]
[OGL LOG][Proc: 0]global_index_init: 0.003 [ms]
[OGL LOG][Proc: 0]update_host_matrix_data: 50.867 [ms]
[OGL LOG][Proc: 0]gather_global_matrix: 0 [ms]
[OGL LOG][Proc: 0]generate_distributed_matrix: 23.101 [ms]
[OGL LOG][Proc: 0]init_precond: 0.044 [ms]
[OGL LOG][Proc: 0]generate_solver: 0.002 [ms]
[OGL LOG][Proc: 0]solve: 1266.78 [ms]
[OGL LOG][Proc: 0]copy_x_back: 2.733 [ms]
[OGL LOG][lduLduBase.H:380] 
Statistics:
	Time per iteration: 901 [mu s]
	Time per iteration and DOF: 0.112625 [ns]
	Retrieve results bandwith 2.927000 [GByte/s]
nonehipGKOCG:  Solving for p, Initial residual = 0.007619, Final residual = 3.59096e-05, No Iterations 1405
linear solve p 1358440
time step continuity errors : sum local = 2.39266e-10, global = 2.27967e-22, cumulative = 1.9401e-21
[OGL LOG][Proc: 0]global_index_init: 0.03 [ms]
[OGL LOG][Proc: 0]global_index_init: 0.003 [ms]
[OGL LOG][Proc: 0]update_host_matrix_data: 51.005 [ms]
[OGL LOG][Proc: 0]gather_global_matrix: 0 [ms]
[OGL LOG][Proc: 0]generate_distributed_matrix: 23.138 [ms]
[OGL LOG][Proc: 0]init_precond: 0.044 [ms]
[OGL LOG][Proc: 0]generate_solver: 0.002 [ms]
[OGL LOG][Proc: 0]solve: 1279.8 [ms]
[OGL LOG][Proc: 0]copy_x_back: 2.736 [ms]
[OGL LOG][lduLduBase.H:380] 
Statistics:
	Time per iteration: 913 [mu s]
	Time per iteration and DOF: 0.114125 [ns]
	Retrieve results bandwith 2.923000 [GByte/s]
nonehipGKOCG:  Solving for p, Initial residual = 0.00686421, Final residual = 3.31027e-05, No Iterations 1401
linear solve p 1374912
time step continuity errors : sum local = 2.20684e-10, global = -6.15724e-23, cumulative = 1.87852e-21
ExecutionTime = 92.28 s  ClockTime = 93 s

Time = 0.00085

Courant Number mean: 0.00644508 max: 0.0943396
DILUPBiCGStab:  Solving for Ux, Initial residual = 0.00979757, Final residual = 7.39546e-07, No Iterations 5
DILUPBiCGStab:  Solving for Uy, Initial residual = 0.0141304, Final residual = 6.41459e-07, No Iterations 5
DILUPBiCGStab:  Solving for Uz, Initial residual = 0.0268362, Final residual = 5.17353e-07, No Iterations 5
linear solve U 848486
[OGL LOG][Proc: 0]global_index_init: 0.028 [ms]
[OGL LOG][Proc: 0]global_index_init: 0.003 [ms]
[OGL LOG][Proc: 0]update_host_matrix_data: 50.349 [ms]
[OGL LOG][Proc: 0]gather_global_matrix: 0 [ms]
[OGL LOG][Proc: 0]generate_distributed_matrix: 21.935 [ms]
[...]
linear solve p 446050
time step continuity errors : sum local = 8.72743e-10, global = 1.98155e-21, cumulative = -1.00518e-21
[OGL LOG][Proc: 0]global_index_init: 0.01 [ms]
[OGL LOG][Proc: 0]global_index_init: 0.001 [ms]
[OGL LOG][Proc: 0]update_host_matrix_data: 34.339 [ms]
[OGL LOG][Proc: 0]gather_global_matrix: 0 [ms]
[OGL LOG][Proc: 0]generate_distributed_matrix: 13.445 [ms]
[OGL LOG][Proc: 0]init_precond: 0.026 [ms]
[OGL LOG][Proc: 0]generate_solver: 0.001 [ms]
[OGL LOG][Proc: 0]solve: 381.833 [ms]
[OGL LOG][Proc: 0]copy_x_back: 1.491 [ms]
[OGL LOG][lduLduBase.H:380] 
Statistics:
	Time per iteration: 567 [mu s]
	Time per iteration and DOF: 0.567000 [ns]
	Retrieve results bandwith 2.682000 [GByte/s]
nonehipGKOCG:  Solving for p, Initial residual = 0.00822991, Final residual = 9.79224e-05, No Iterations 673
linear solve p 435454
time step continuity errors : sum local = 2.38863e-09, global = 9.62946e-22, cumulative = -4.22298e-23
ExecutionTime = 25.69 s  ClockTime = 26 s

Time = 0.0012

Courant Number mean: 0.00722379 max: 0.0900356
DILUPBiCGStab:  Solving for Ux, Initial residual = 0.0147484, Final residual = 1.4367e-08, No Iterations 5
DILUPBiCGStab:  Solving for Uy, Initial residual = 0.0202882, Final residual = 1.70422e-09, No Iterations 5
DILUPBiCGStab:  Solving for Uz, Initial residual = 0.0381757, Final residual = 1.03887e-08, No Iterations 5
linear solve U 484658
[OGL LOG][Proc: 0]global_index_init: 0.011 [ms]
[OGL LOG][Proc: 0]global_index_init: 0.001 [ms]
[OGL LOG][Proc: 0]update_host_matrix_data: 34.514 [ms]
[OGL LOG][Proc: 0]gather_global_matrix: 0 [ms]
[OGL LOG][Proc: 0]generate_distributed_matrix: 13.359 [ms]
[OGL LOG][Proc: 0]init_precond: 0.029 [ms]
[OGL LOG][Proc: 0]generate_solver: 0.001 [ms]
[OGL LOG][Proc: 0]solve: 380.696 [ms]
[OGL LOG][Proc: 0]copy_x_back: 1.514 [ms]
[OGL LOG][lduLduBase.H:380] 
Statistics:
	Time per iteration: 562 [mu s]
	Time per iteration and DOF: 0.562000 [ns]
	Retrieve results bandwith 2.642000 [GByte/s]
nonehipGKOCG:  Solving for p, Initial residual = 0.00901345, Final residual = 9.20818e-05, No Iterations 677
linear solve p 434537
time step continuity errors : sum local = 2.24918e-09, global = 4.67713e-22, cumulative = 4.25483e-22
[OGL LOG][Proc: 0]global_index_init: 0.006 [ms]
[OGL LOG][Proc: 0]global_index_init: 0.001 [ms]
[OGL LOG][Proc: 0]update_host_matrix_data: 34.167 [ms]
[OGL LOG][Proc: 0]gather_global_matrix: 0 [ms]
[OGL LOG][Proc: 0]generate_distributed_matrix: 13.487 [ms]
[OGL LOG][Proc: 0]init_precond: 0.024 [ms]
[OGL LOG][Proc: 0]generate_solver: 0.001 [ms]
[OGL LOG][Proc: 0]solve: 380.404 [ms]
[OGL LOG][Proc: 0]copy_x_back: 1.52 [ms]
[OGL LOG][lduLduBase.H:380] 
Statistics:
	Time per iteration: 562 [mu s]
	Time per iteration and DOF: 0.562000 [ns]
	Retrieve results bandwith 2.631000 [GByte/s]
nonehipGKOCG:  Solving for p, Initial residual = 0.00733591, Final residual = 7.56169e-05, No Iterations 676
linear solve p 434007
time step continuity errors : sum local = 1.84967e-09, global = -3.0095e-22, cumulative = 1.24534e-22
ExecutionTime = 27.38 s  ClockTime = 28 s

Time = 0.0013

Courant Number mean: 0.00748302 max: 0.0904387
DILUPBiCGStab:  Solving for Ux, Initial residual = 0.0134671, Final residual = 1.30976e-08, No Iterations 5
DILUPBiCGStab:  Solving for Uy, Initial residual = 0.0184652, Final residual = 1.43156e-09, No Iterations 5
DILUPBiCGStab:  Solving for Uz, Initial residual = 0.0350473, Final residual = 8.78081e-09, No Iterations 5
linear solve U 485489
[OGL LOG][Proc: 0]global_index_init: 0.007 [ms]
[OGL LOG][Proc: 0]global_index_init: 0 [ms]
[OGL LOG][Proc: 0]update_host_matrix_data: 34.343 [ms]
[OGL LOG][Proc: 0]gather_global_matrix: 0 [ms]
[OGL LOG][Proc: 0]generate_distributed_matrix: 13.601 [ms]
[OGL LOG][Proc: 0]init_precond: 0.032 [ms]
[OGL LOG][Proc: 0]generate_solver: 0.001 [ms]
[OGL LOG][Proc: 0]solve: 379.913 [ms]
[OGL LOG][Proc: 0]copy_x_back: 1.528 [ms]
[OGL LOG][lduLduBase.H:380] 
Statistics:
	Time per iteration: 562 [mu s]
	Time per iteration and DOF: 0.562000 [ns]
	Retrieve results bandwith 2.617000 [GByte/s]
nonehipGKOCG:  Solving for p, Initial residual = 0.00804799, Final residual = 8.88698e-05, No Iterations 676
linear solve p 433720
time step continuity errors : sum local = 2.17643e-09, global = -1.32597e-22, cumulative = -8.06327e-24
[OGL LOG][Proc: 0]global_index_init: 0.006 [ms]
[OGL LOG][Proc: 0]global_index_init: 0.001 [ms]
[OGL LOG][Proc: 0]update_host_matrix_data: 34.362 [ms]
[OGL LOG][Proc: 0]gather_global_matrix: 0 [ms]
[OGL LOG][Proc: 0]generate_distributed_matrix: 13.406 [ms]
[OGL LOG][Proc: 0]init_precond: 0.028 [ms]
[OGL LOG][Proc: 0]generate_solver: 0.001 [ms]
[OGL LOG][Proc: 0]solve: 382.163 [ms]
[OGL LOG][Proc: 0]copy_x_back: 1.554 [ms]
[OGL LOG][lduLduBase.H:380] 
Statistics:
	Time per iteration: 565 [mu s]
	Time per iteration and DOF: 0.565000 [ns]
	Retrieve results bandwith 2.574000 [GByte/s]
nonehipGKOCG:  Solving for p, Initial residual = 0.00657105, Final residual = 6.12552e-05, No Iterations 676
linear solve p 435816
time step continuity errors : sum local = 1.50203e-09, global = -9.88215e-22, cumulative = -9.96279e-22
ExecutionTime = 29.09 s  ClockTime = 29 s

Time = 0.0014

Courant Number mean: 0.00772783 max: 0.0907903
DILUPBiCGStab:  Solving for Ux, Initial residual = 0.0123794, Final residual = 1.18105e-08, No Iterations 5
DILUPBiCGStab:  Solving for Uy, Initial residual = 0.0169325, Final residual = 1.23572e-09, No Iterations 5
DILUPBiCGStab:  Solving for Uz, Initial residual = 0.0323881, Final residual = 7.65433e-09, No Iterations 5
linear solve U 488272
[OGL LOG][Proc: 0]global_index_init: 0.007 [ms]
[OGL LOG][Proc: 0]global_index_init: 0 [ms]
[OGL LOG][Proc: 0]update_host_matrix_data: 34.473 [ms]
[OGL LOG][Proc: 0]gather_global_matrix: 0 [ms]
[OGL LOG][Proc: 0]generate_distributed_matrix: 13.355 [ms]
[OGL LOG][Proc: 0]init_precond: 0.028 [ms]
[OGL LOG][Proc: 0]generate_solver: 0.001 [ms]
[OGL LOG][Proc: 0]solve: 380.48 [ms]
[OGL LOG][Proc: 0]copy_x_back: 1.692 [ms]
[OGL LOG][lduLduBase.H:380] 
Statistics:
	Time per iteration: 562 [mu s]
	Time per iteration and DOF: 0.562000 [ns]
	Retrieve results bandwith 2.364000 [GByte/s]
nonehipGKOCG:  Solving for p, Initial residual = 0.00719079, Final residual = 8.1516e-05, No Iterations 676
linear solve p 434255
time step continuity errors : sum local = 2.00083e-09, global = -3.5285e-22, cumulative = -1.34913e-21
[OGL LOG][Proc: 0]global_index_init: 0.007 [ms]
[OGL LOG][Proc: 0]global_index_init: 0 [ms]
[OGL LOG][Proc: 0]update_host_matrix_data: 34.833 [ms]
[OGL LOG][Proc: 0]gather_global_matrix: 0 [ms]
[OGL LOG][Proc: 0]generate_distributed_matrix: 13.42 [ms]
[OGL LOG][Proc: 0]init_precond: 0.031 [ms]
[OGL LOG][Proc: 0]generate_solver: 0.001 [ms]
[OGL LOG][Proc: 0]solve: 380.002 [ms]
[OGL LOG][Proc: 0]copy_x_back: 1.446 [ms]
[OGL LOG][lduLduBase.H:380] 
Statistics:
	Time per iteration: 562 [mu s]
	Time per iteration and DOF: 0.562000 [ns]
	Retrieve results bandwith 2.766000 [GByte/s]
nonehipGKOCG:  Solving for p, Initial residual = 0.0058977, Final residual = 5.38532e-05, No Iterations 676
linear solve p 435397
time step continuity errors : sum local = 1.32332e-09, global = 3.83687e-22, cumulative = -9.65442e-22
ExecutionTime = 30.79 s  ClockTime = 31 s

Time = 0.0015

Courant Number mean: 0.00795861 max: 0.0911006
DILUPBiCGStab:  Solving for Ux, Initial residual = 0.011447, Final residual = 1.05862e-08, No Iterations 5
DILUPBiCGStab:  Solving for Uy, Initial residual = 0.0156259, Final residual = 1.08357e-09, No Iterations 5
DILUPBiCGStab:  Solving for Uz, Initial residual = 0.0300842, Final residual = 6.85453e-09, No Iterations 5
linear solve U 488784
[OGL LOG][Proc: 0]global_index_init: 0.007 [ms]
[OGL LOG][Proc: 0]global_index_init: 0 [ms]
[OGL LOG][Proc: 0]update_host_matrix_data: 34.337 [ms]
[OGL LOG][Proc: 0]gather_global_matrix: 0 [ms]
[OGL LOG][Proc: 0]generate_distributed_matrix: 13.507 [ms]
[OGL LOG][Proc: 0]init_precond: 0.034 [ms]
[OGL LOG][Proc: 0]generate_solver: 0.001 [ms]
[OGL LOG][Proc: 0]solve: 378.976 [ms]
[OGL LOG][Proc: 0]copy_x_back: 1.532 [ms]
[OGL LOG][lduLduBase.H:380] 
Statistics:
	Time per iteration: 560 [mu s]
	Time per iteration and DOF: 0.560000 [ns]
	Retrieve results bandwith 2.610000 [GByte/s]
nonehipGKOCG:  Solving for p, Initial residual = 0.00650148, Final residual = 7.34757e-05, No Iterations 676
linear solve p 432702
time step continuity errors : sum local = 1.80713e-09, global = -1.01211e-21, cumulative = -1.97755e-21
[OGL LOG][Proc: 0]global_index_init: 0.007 [ms]
[OGL LOG][Proc: 0]global_index_init: 0 [ms]
[OGL LOG][Proc: 0]update_host_matrix_data: 34.197 [ms]
[OGL LOG][Proc: 0]gather_global_matrix: 0 [ms]
[OGL LOG][Proc: 0]generate_distributed_matrix: 13.553 [ms]
[OGL LOG][Proc: 0]init_precond: 0.026 [ms]
[OGL LOG][Proc: 0]generate_solver: 0.001 [ms]
[OGL LOG][Proc: 0]solve: 322.817 [ms]
[OGL LOG][Proc: 0]copy_x_back: 1.496 [ms]
[OGL LOG][lduLduBase.H:380] 
Statistics:
	Time per iteration: 596 [mu s]
	Time per iteration and DOF: 0.596000 [ns]
	Retrieve results bandwith 2.673000 [GByte/s]
nonehipGKOCG:  Solving for p, Initial residual = 0.00534402, Final residual = 9.89624e-05, No Iterations 541
linear solve p 376400
time step continuity errors : sum local = 2.47208e-09, global = -1.52827e-22, cumulative = -2.13038e-21
ExecutionTime = 32.44 s  ClockTime = 33 s

Time = 0.0016

Courant Number mean: 0.00817648 max: 0.091377
DILUPBiCGStab:  Solving for Ux, Initial residual = 0.0106401, Final residual = 9.46563e-09, No Iterations 5
DILUPBiCGStab:  Solving for Uy, Initial residual = 0.0145001, Final residual = 9.60837e-10, No Iterations 5
DILUPBiCGStab:  Solving for Uz, Initial residual = 0.0280943, Final residual = 6.84508e-09, No Iterations 5
linear solve U 485431
[OGL LOG][Proc: 0]global_index_init: 0.007 [ms]
[OGL LOG][Proc: 0]global_index_init: 0 [ms]
[OGL LOG][Proc: 0]update_host_matrix_data: 34.193 [ms]
[OGL LOG][Proc: 0]gather_global_matrix: 0 [ms]
[OGL LOG][Proc: 0]generate_distributed_matrix: 13.405 [ms]
[OGL LOG][Proc: 0]init_precond: 0.031 [ms]
[OGL LOG][Proc: 0]generate_solver: 0.001 [ms]
[OGL LOG][Proc: 0]solve: 291.324 [ms]
[OGL LOG][Proc: 0]copy_x_back: 1.369 [ms]
[OGL LOG][lduLduBase.H:380] 
Statistics:
	Time per iteration: 659 [mu s]
	Time per iteration and DOF: 0.659000 [ns]
	Retrieve results bandwith 2.921000 [GByte/s]
nonehipGKOCG:  Solving for p, Initial residual = 0.00596842, Final residual = 1.06969e-05, No Iterations 442
linear solve p 344209
time step continuity errors : sum local = 2.92439e-10, global = 9.76368e-22, cumulative = -1.15401e-21
[OGL LOG][Proc: 0]global_index_init: 0.006 [ms]
[OGL LOG][Proc: 0]global_index_init: 0 [ms]
[OGL LOG][Proc: 0]update_host_matrix_data: 34.183 [ms]
[OGL LOG][Proc: 0]gather_global_matrix: 0 [ms]
[OGL LOG][Proc: 0]generate_distributed_matrix: 13.331 [ms]
[OGL LOG][Proc: 0]init_precond: 0.029 [ms]
[OGL LOG][Proc: 0]generate_solver: 0.001 [ms]
[OGL LOG][Proc: 0]solve: 242.084 [ms]
[OGL LOG][Proc: 0]copy_x_back: 1.504 [ms]
[OGL LOG][lduLduBase.H:380] 
Statistics:
	Time per iteration: 676 [mu s]
	Time per iteration and DOF: 0.676000 [ns]
	Retrieve results bandwith 2.659000 [GByte/s]
nonehipGKOCG:  Solving for p, Initial residual = 0.00486503, Final residual = 1.40246e-05, No Iterations 358
linear solve p 295542
time step continuity errors : sum local = 3.86318e-10, global = 4.85291e-22, cumulative = -6.68719e-22
ExecutionTime = 33.92 s  ClockTime = 34 s

Time = 0.0017

Courant Number mean: 0.00838249 max: 0.0916252
DILUPBiCGStab:  Solving for Ux, Initial residual = 0.00993241, Final residual = 8.4681e-09, No Iterations 5
DILUPBiCGStab:  Solving for Uy, Initial residual = 0.0135174, Final residual = 8.56768e-10, No Iterations 5
DILUPBiCGStab:  Solving for Uz, Initial residual = 0.0263586, Final residual = 5.8221e-09, No Iterations 5
linear solve U 484948
[OGL LOG][Proc: 0]global_index_init: 0.006 [ms]
[OGL LOG][Proc: 0]global_index_init: 0.001 [ms]
[OGL LOG][Proc: 0]update_host_matrix_data: 34.132 [ms]
[OGL LOG][Proc: 0]gather_global_matrix: 0 [ms]
[OGL LOG][Proc: 0]generate_distributed_matrix: 13.523 [ms]
[OGL LOG][Proc: 0]init_precond: 0.027 [ms]
[OGL LOG][Proc: 0]generate_solver: 0.001 [ms]
[OGL LOG][Proc: 0]solve: 217.142 [ms]
[OGL LOG][Proc: 0]copy_x_back: 1.524 [ms]
[OGL LOG][lduLduBase.H:380] 
Statistics:
	Time per iteration: 736 [mu s]
	Time per iteration and DOF: 0.736000 [ns]
	Retrieve results bandwith 2.624000 [GByte/s]
nonehipGKOCG:  Solving for p, Initial residual = 0.00535959, Final residual = 3.24593e-05, No Iterations 295
linear solve p 270667
time step continuity errors : sum local = 8.11994e-10, global = -1.08146e-21, cumulative = -1.75018e-21
[OGL LOG][Proc: 0]global_index_init: 0.006 [ms]
[OGL LOG][Proc: 0]global_index_init: 0.001 [ms]
[OGL LOG][Proc: 0]update_host_matrix_data: 34.467 [ms]
[OGL LOG][Proc: 0]gather_global_matrix: 0 [ms]
[OGL LOG][Proc: 0]generate_distributed_matrix: 13.488 [ms]
[OGL LOG][Proc: 0]init_precond: 0.026 [ms]
[OGL LOG][Proc: 0]generate_solver: 0.001 [ms]
[OGL LOG][Proc: 0]solve: 204.877 [ms]
[OGL LOG][Proc: 0]copy_x_back: 1.527 [ms]
[OGL LOG][lduLduBase.H:380] 
Statistics:
	Time per iteration: 773 [mu s]
	Time per iteration and DOF: 0.773000 [ns]
	Retrieve results bandwith 2.619000 [GByte/s]
nonehipGKOCG:  Solving for p, Initial residual = 0.00439696, Final residual = 7.71292e-05, No Iterations 265
linear solve p 258628
time step continuity errors : sum local = 1.93575e-09, global = 3.76814e-22, cumulative = -1.37337e-21
ExecutionTime = 35.28 s  ClockTime = 35 s

Time = 0.0018

Courant Number mean: 0.00857955 max: 0.0918497
DILUPBiCGStab:  Solving for Ux, Initial residual = 0.00931084, Final residual = 7.59287e-09, No Iterations 5
DILUPBiCGStab:  Solving for Uy, Initial residual = 0.0126548, Final residual = 7.69281e-10, No Iterations 5
DILUPBiCGStab:  Solving for Uz, Initial residual = 0.0247706, Final residual = 5.55792e-09, No Iterations 5
linear solve U 483563
[OGL LOG][Proc: 0]global_index_init: 0.006 [ms]
[OGL LOG][Proc: 0]global_index_init: 0 [ms]
[OGL LOG][Proc: 0]update_host_matrix_data: 34.358 [ms]
[OGL LOG][Proc: 0]gather_global_matrix: 0 [ms]
[OGL LOG][Proc: 0]generate_distributed_matrix: 13.455 [ms]
[OGL LOG][Proc: 0]init_precond: 0.031 [ms]
[OGL LOG][Proc: 0]generate_solver: 0.001 [ms]
[OGL LOG][Proc: 0]solve: 207.448 [ms]
[OGL LOG][Proc: 0]copy_x_back: 1.501 [ms]
[OGL LOG][lduLduBase.H:380] 
Statistics:
	Time per iteration: 765 [mu s]
	Time per iteration and DOF: 0.765000 [ns]
	Retrieve results bandwith 2.664000 [GByte/s]
nonehipGKOCG:  Solving for p, Initial residual = 0.00502393, Final residual = 7.17504e-05, No Iterations 271
linear solve p 261159
time step continuity errors : sum local = 1.78017e-09, global = 5.67459e-22, cumulative = -8.05907e-22
[OGL LOG][Proc: 0]global_index_init: 0.006 [ms]
[OGL LOG][Proc: 0]global_index_init: 0 [ms]
[OGL LOG][Proc: 0]update_host_matrix_data: 34.225 [ms]
[OGL LOG][Proc: 0]gather_global_matrix: 0 [ms]
[OGL LOG][Proc: 0]generate_distributed_matrix: 13.452 [ms]
[OGL LOG][Proc: 0]init_precond: 0.028 [ms]
[OGL LOG][Proc: 0]generate_solver: 0.001 [ms]
[OGL LOG][Proc: 0]solve: 202.888 [ms]
[OGL LOG][Proc: 0]copy_x_back: 1.495 [ms]
[OGL LOG][lduLduBase.H:380] 
Statistics:
	Time per iteration: 777 [mu s]
	Time per iteration and DOF: 0.777000 [ns]
	Retrieve results bandwith 2.675000 [GByte/s]
nonehipGKOCG:  Solving for p, Initial residual = 0.00413339, Final residual = 8.76452e-05, No Iterations 261
linear solve p 256485
time step continuity errors : sum local = 2.1919e-09, global = -2.33115e-22, cumulative = -1.03902e-21
ExecutionTime = 36.63 s  ClockTime = 37 s

Time = 0.0019

Courant Number mean: 0.00876812 max: 0.092054
DILUPBiCGStab:  Solving for Ux, Initial residual = 0.00875808, Final residual = 6.83379e-09, No Iterations 5
DILUPBiCGStab:  Solving for Uy, Initial residual = 0.0118905, Final residual = 6.95193e-10, No Iterations 5
DILUPBiCGStab:  Solving for Uz, Initial residual = 0.0233603, Final residual = 5.26456e-09, No Iterations 5
linear solve U 484234
[OGL LOG][Proc: 0]global_index_init: 0.007 [ms]
[OGL LOG][Proc: 0]global_index_init: 0.001 [ms]
[OGL LOG][Proc: 0]update_host_matrix_data: 34.227 [ms]
[OGL LOG][Proc: 0]gather_global_matrix: 0 [ms]
[OGL LOG][Proc: 0]generate_distributed_matrix: 13.368 [ms]
[OGL LOG][Proc: 0]init_precond: 0.028 [ms]
[OGL LOG][Proc: 0]generate_solver: 0.001 [ms]
[OGL LOG][Proc: 0]solve: 208.442 [ms]
[OGL LOG][Proc: 0]copy_x_back: 1.528 [ms]
[OGL LOG][lduLduBase.H:380] 
Statistics:
	Time per iteration: 769 [mu s]
	Time per iteration and DOF: 0.769000 [ns]
	Retrieve results bandwith 2.617000 [GByte/s]
nonehipGKOCG:  Solving for p, Initial residual = 0.00468623, Final residual = 6.93894e-05, No Iterations 271
linear solve p 261906
time step continuity errors : sum local = 1.71832e-09, global = 3.33895e-22, cumulative = -7.05127e-22
[OGL LOG][Proc: 0]global_index_init: 0.011 [ms]
[OGL LOG][Proc: 0]global_index_init: 0 [ms]
[OGL LOG][Proc: 0]update_host_matrix_data: 34.323 [ms]
[OGL LOG][Proc: 0]gather_global_matrix: 0 [ms]
[OGL LOG][Proc: 0]generate_distributed_matrix: 13.42 [ms]
[OGL LOG][Proc: 0]init_precond: 0.036 [ms]
[OGL LOG][Proc: 0]generate_solver: 0.001 [ms]
[OGL LOG][Proc: 0]solve: 202.215 [ms]
[OGL LOG][Proc: 0]copy_x_back: 1.511 [ms]
[OGL LOG][lduLduBase.H:380] 
Statistics:
	Time per iteration: 774 [mu s]
	Time per iteration and DOF: 0.774000 [ns]
	Retrieve results bandwith 2.647000 [GByte/s]
nonehipGKOCG:  Solving for p, Initial residual = 0.00385847, Final residual = 8.15492e-05, No Iterations 261
linear solve p 255847
time step continuity errors : sum local = 2.03711e-09, global = -4.17447e-22, cumulative = -1.12257e-21
ExecutionTime = 37.98 s  ClockTime = 38 s

Time = 0.002

Courant Number mean: 0.00894849 max: 0.0922409
DILUPBiCGStab:  Solving for Ux, Initial residual = 0.0082609, Final residual = 6.17849e-09, No Iterations 5
DILUPBiCGStab:  Solving for Uy, Initial residual = 0.0112089, Final residual = 6.31893e-10, No Iterations 5
DILUPBiCGStab:  Solving for Uz, Initial residual = 0.0220942, Final residual = 4.99342e-09, No Iterations 5
linear solve U 484991
[OGL LOG][Proc: 0]global_index_init: 0.007 [ms]
[OGL LOG][Proc: 0]global_index_init: 0 [ms]
[OGL LOG][Proc: 0]update_host_matrix_data: 34.382 [ms]
[OGL LOG][Proc: 0]gather_global_matrix: 0 [ms]
[OGL LOG][Proc: 0]generate_distributed_matrix: 13.425 [ms]
[OGL LOG][Proc: 0]init_precond: 0.03 [ms]
[OGL LOG][Proc: 0]generate_solver: 0.001 [ms]
[OGL LOG][Proc: 0]solve: 203.215 [ms]
[OGL LOG][Proc: 0]copy_x_back: 1.518 [ms]
[OGL LOG][lduLduBase.H:380] 
Statistics:
	Time per iteration: 778 [mu s]
	Time per iteration and DOF: 0.778000 [ns]
	Retrieve results bandwith 2.635000 [GByte/s]
nonehipGKOCG:  Solving for p, Initial residual = 0.0043277, Final residual = 9.38656e-05, No Iterations 261
linear solve p 256932
time step continuity errors : sum local = 2.32914e-09, global = -3.19798e-22, cumulative = -1.44237e-21
[OGL LOG][Proc: 0]global_index_init: 0.005 [ms]
[OGL LOG][Proc: 0]global_index_init: 0.001 [ms]
[OGL LOG][Proc: 0]update_host_matrix_data: 34.148 [ms]
[OGL LOG][Proc: 0]gather_global_matrix: 0 [ms]
[OGL LOG][Proc: 0]generate_distributed_matrix: 13.285 [ms]
[OGL LOG][Proc: 0]init_precond: 0.028 [ms]
[OGL LOG][Proc: 0]generate_solver: 0.001 [ms]
[OGL LOG][Proc: 0]solve: 203.768 [ms]
[OGL LOG][Proc: 0]copy_x_back: 1.491 [ms]
[OGL LOG][lduLduBase.H:380] 
Statistics:
	Time per iteration: 780 [mu s]
	Time per iteration and DOF: 0.780000 [ns]
	Retrieve results bandwith 2.682000 [GByte/s]
nonehipGKOCG:  Solving for p, Initial residual = 0.0035989, Final residual = 6.89396e-05, No Iterations 261
linear solve p 257153
time step continuity errors : sum local = 1.72098e-09, global = 2.27997e-22, cumulative = -1.21438e-21
ExecutionTime = 39.33 s  ClockTime = 40 s

End

Finalising parallel run
================================================================================
