hash: 6ec1c8e69a2da56e3ceeb793964e2a67
/*---------------------------------------------------------------------------*\
| =========                 |                                                 |
| \\      /  F ield         | OpenFOAM: The Open Source CFD Toolbox           |
|  \\    /   O peration     | Version:  2112                                  |
|   \\  /    A nd           | Website:  www.openfoam.com                      |
|    \\/     M anipulation  |                                                 |
\*---------------------------------------------------------------------------*/
Build  : d44c8318f0-20220111 OPENFOAM=2112 version=v2112
Arch   : "LSB;label=32;scalar=64"
Exec   : icoFoam -parallel
Date   : Sep 29 2022
Time   : 13:34:26
Host   : hkn0623.localdomain
PID    : 3059882
I/O    : uncollated
Case   : /hkfs/work/workspace/scratch/eq4036-lidDrivenCavity/single_node/mesh/400/matrix_solver/CG_NoPrecond_PETSC_CUDA/mpiRank_of/4/base
nProcs : 4
Hosts  :
(
    (hkn0623.localdomain 4)
)
Pstream initialized with:
    floatTransfer      : 0
    nProcsSimpleSum    : 0
    commsType          : nonBlocking
    polling iterations : 0
trapFpe: Floating point exception trapping enabled (FOAM_SIGFPE).
fileModificationChecking : Monitoring run-time modified files using timeStampMaster (fileModificationSkew 5, maxFileModificationPolls 20)
allowSystemOperations : Allowing user-supplied system call operations

// * * * * * * * * * * * * * * * * * * * * * * * * * * * * * * * * * * * * * //
Create time

Create mesh for time = 0


PISO: Operating solver in PISO mode

Reading transportProperties

Reading field p

Reading field U

Reading/calculating face flux field phi


Starting time loop

Time = 2.5e-05

Courant Number mean: 0 max: 0
DILUPBiCGStab:  Solving for Ux, Initial residual = 1, Final residual = 0.00118713, No Iterations 5
DILUPBiCGStab:  Solving for Uy:  solution singularity
DILUPBiCGStab:  Solving for Uz:  solution singularity
linear solve U 11201523
Initializing PETSc
PETSc-cg:  Solving for p, Initial residual = 1, Final residual = 9.99568e-05, No Iterations 3256
linear solve p 17273237
time step continuity errors : sum local = 2.40992e-10, global = 1.93226e-23, cumulative = 1.93226e-23
PETSc-cg:  Solving for p, Initial residual = 0.716144, Final residual = 9.90851e-05, No Iterations 3237
linear solve p 12869236
time step continuity errors : sum local = 3.22366e-10, global = -1.50296e-23, cumulative = 4.29294e-24
ExecutionTime = 110.78 s  ClockTime = 112 s

Time = 5e-05

Courant Number mean: 0.00116777 max: 0.0751289
DILUPBiCGStab:  Solving for Ux, Initial residual = 0.159858, Final residual = 0.000699206, No Iterations 5
DILUPBiCGStab:  Solving for Uy, Initial residual = 0.348607, Final residual = 0.000549935, No Iterations 5
DILUPBiCGStab:  Solving for Uz, Initial residual = 0.997103, Final residual = 0.00258441, No Iterations 5
linear solve U 22526172PPETSc-cg:  Solving for p, Initial residual = 0.6549, Final residual = 9.91431e-05, No Iterations 3180
linear solve p 12645822
time step continuity errors : sum local = 3.48135e-10, global = 4.66344e-23, cumulative = 5.09274e-23PPETSc-cg:  Solving for p, Initial residual = 0.580434, Final residual = 9.87729e-05, No Iterations 3175
linear solve p 12625945
time step continuity errors : sum local = 3.52812e-10, global = 4.30207e-24, cumulative = 5.52295e-23
ExecutionTime = 174.46 s  ClockTime = 175 s

Time = 7.5e-05

Courant Number mean: 0.00178106 max: 0.0870165
DILUPBiCGStab:  Solving for Ux, Initial residual = 0.0661404, Final residual = 0.000197637, No Iterations 5
DILUPBiCGStab:  Solving for Uy, Initial residual = 0.138167, Final residual = 0.000139212, No Iterations 5
DILUPBiCGStab:  Solving for Uz, Initial residual = 0.430577, Final residual = 0.00127506, No Iterations 5
linear solve U 22468146PPETSc-cg:  Solving for p, Initial residual = 0.55682, Final residual = 9.99626e-05, No Iterations 3133
linear solve p 12438238
time step continuity errors : sum local = 2.52875e-10, global = -3.20979e-23, cumulative = 2.31316e-23PPETSc-cg:  Solving for p, Initial residual = 0.499731, Final residual = 9.98415e-05, No Iterations 3123
linear solve p 12398252
time step continuity errors : sum local = 2.47345e-10, global = -2.36795e-23, cumulative = -5.47926e-25
ExecutionTime = 237.66 s  ClockTime = 239 s

Time = 0.0001

Courant Number mean: 0.00220834 max: 0.0903159DDILUPBiCGStab:  Solving for Ux, Initial residual = 0.0436882, Final residual = 8.49395e-05, No Iterations 5
DILUPBiCGStab:  Solving for Uy, Initial residual = 0.0871973, Final residual = 5.74933e-05, No Iterations 5
DILUPBiCGStab:  Solving for Uz, Initial residual = 0.132543, Final residual = 0.000248578, No Iterations 5
linear solve U 30289970
PETSc-cg:  Solving for p, Initial residual = 0.320107, Final residual = 9.99507e-05, No Iterations 1487
linear solve p 6352570
time step continuity errors : sum local = 2.30086e-10, global = 3.86694e-23, cumulative = 3.81215e-23
PETSc-cg:  Solving for p, Initial residual = 0.265675, Final residual = 9.79137e-05, No Iterations 1466
linear solve p 6293489
time step continuity errors : sum local = 2.16847e-10, global = -5.65197e-23, cumulative = -1.83982e-23
ExecutionTime = 296.53 s  ClockTime = 298 s

Time = 0.000125

Courant Number mean: 0.00255413 max: 0.091904DIDILUPBiCGStab:  Solving for Ux, Initial residual = 0.0332524, Final residual = 5.10828e-05, No Iterations 5
DILUPBiCGStab:  Solving for Uy, Initial residual = 0.0630107, Final residual = 3.67645e-05, No Iterations 5
DILUPBiCGStab:  Solving for Uz, Initial residual = 0.0910234, Final residual = 0.000139387, No Iterations 5
linear solve U 30274507
PETSc-cg:  Solving for p, Initial residual = 0.213943, Final residual = 9.96404e-05, No Iterations 1436
linear solve p 6167878
time step continuity errors : sum local = 1.92419e-10, global = 3.83676e-23, cumulative = 1.99694e-23
PETSc-cg:  Solving for p, Initial residual = 0.180194, Final residual = 9.77144e-05, No Iterations 1433
linear solve p 6151165
time step continuity errors : sum local = 1.85674e-10, global = 1.55588e-23, cumulative = 3.55281e-23
ExecutionTime = 355.16 s  ClockTime = 357 s

Time = 0.00015

Courant Number mean: 0.00284935 max: 0.09288DILDILUPBiCGStab:  Solving for Ux, Initial residual = 0.0270466, Final residual = 3.35989e-05, No Iterations 5
DILUPBiCGStab:  Solving for Uy, Initial residual = 0.0494904, Final residual = 1.57018e-05, No Iterations 5
DILUPBiCGStab:  Solving for Uz, Initial residual = 0.0794061, Final residual = 0.00010523, No Iterations 5
linear solve U 30335502
PETSc-cg:  Solving for p, Initial residual = 0.12744, Final residual = 9.88582e-05, No Iterations 1450
linear solve p 6215392
time step continuity errors : sum local = 1.97541e-10, global = -3.06115e-23, cumulative = 4.91664e-24
PETSc-cg:  Solving for p, Initial residual = 0.104997, Final residual = 9.90705e-05, No Iterations 1374
linear solve p 5961224
time step continuity errors : sum local = 1.8878e-10, global = -4.56772e-23, cumulative = -4.07605e-23
ExecutionTime = 413.68 s  ClockTime = 415 s

Time = 0.000175

Courant Number mean: 0.00310981 max: 0.09357DILDILUPBiCGStab:  Solving for Ux, Initial residual = 0.0228825, Final residual = 2.37574e-05, No Iterations 5
DILUPBiCGStab:  Solving for Uy, Initial residual = 0.0407639, Final residual = 1.42395e-05, No Iterations 5
DILUPBiCGStab:  Solving for Uz, Initial residual = 0.0674738, Final residual = 6.92919e-05, No Iterations 5
linear solve U 30284495
Sc-cg:  Solving for p, Initial residual = 0.0871436, Final residual = 9.99367e-05, No Iterations 1426
linear solve p 6120125
time step continuity errors : sum local = 1.85716e-10, global = -2.68672e-23, cumulative = -6.76278e-23
================================================================================
hash: f85f70869da0aab1be055b68cfa394f5
/*---------------------------------------------------------------------------*\
| =========                 |                                                 |
| \\      /  F ield         | OpenFOAM: The Open Source CFD Toolbox           |
|  \\    /   O peration     | Version:  2112                                  |
|   \\  /    A nd           | Website:  www.openfoam.com                      |
|    \\/     M anipulation  |                                                 |
\*---------------------------------------------------------------------------*/
Build  : d44c8318f0-20220111 OPENFOAM=2112 version=v2112
Arch   : "LSB;label=32;scalar=64"
Exec   : icoFoam -parallel
Date   : Sep 29 2022
Time   : 13:34:15
Host   : hkn0732.localdomain
PID    : 2019142
I/O    : uncollated
Case   : /hkfs/work/workspace/scratch/eq4036-lidDrivenCavity/single_node/mesh/400/matrix_solver/CG_NoPrecond_Ginkgo_CUDA/mpiRank_gko/4/base
nProcs : 4
Hosts  :
(
    (hkn0732.localdomain 4)
)
Pstream initialized with:
    floatTransfer      : 0
    nProcsSimpleSum    : 0
    commsType          : nonBlocking
    polling iterations : 0
trapFpe: Floating point exception trapping enabled (FOAM_SIGFPE).
fileModificationChecking : Monitoring run-time modified files using timeStampMaster (fileModificationSkew 5, maxFileModificationPolls 20)
allowSystemOperations : Allowing user-supplied system call operations

// * * * * * * * * * * * * * * * * * * * * * * * * * * * * * * * * * * * * * //
Create time

Create mesh for time = 0


PISO: Operating solver in PISO mode

Reading transportProperties

Reading field p

Reading field U

Reading/calculating face flux field phi


Starting time loop

Time = 2.5e-05

Courant Number mean: 0 max: 0
DILUPBiCGStab:  Solving for Ux, Initial residual = 1, Final residual = 0.00118713, No Iterations 5
DILUPBiCGStab:  Solving for Uy:  solution singularity
DILUPBiCGStab:  Solving for Uz:  solution singularity
linear solve U 11101549
[OGL LOG][lduLduBase.H:107] Initialising OGL
	Version:  44ec570
	Branch: repartition 
	Ginkgo version: 1.5.0(develop)
	MPI is GPU aware: 1
	Forces host buffer based communication: 1
	CPU ranks per GPU: 1
	Matrix format: Coo
[OGL LOG][Proc: 0]global_index_init: 12.364 [ms]
[OGL LOG][Proc: 0]global_index_init: 0.001 [ms]
================================================================================
hash: de4cb09dbc4d2da16a57dc5e8b3f44e3
/*---------------------------------------------------------------------------*\
| =========                 |                                                 |
| \\      /  F ield         | OpenFOAM: The Open Source CFD Toolbox           |
|  \\    /   O peration     | Version:  2112                                  |
|   \\  /    A nd           | Website:  www.openfoam.com                      |
|    \\/     M anipulation  |                                                 |
\*---------------------------------------------------------------------------*/
Build  : d44c8318f0-20220111 OPENFOAM=2112 version=v2112
Arch   : "LSB;label=32;scalar=64"
Exec   : icoFoam -parallel
Date   : Sep 29 2022
Time   : 13:34:26
Host   : hkn0621.localdomain
PID    : 3746145
I/O    : uncollated
Case   : /hkfs/work/workspace/scratch/eq4036-lidDrivenCavity/single_node/mesh/300/matrix_solver/CG_NoPrecond_PETSC_CUDA/mpiRank_of/4/base
nProcs : 4
Hosts  :
(
    (hkn0621.localdomain 4)
)
Pstream initialized with:
    floatTransfer      : 0
    nProcsSimpleSum    : 0
    commsType          : nonBlocking
    polling iterations : 0
trapFpe: Floating point exception trapping enabled (FOAM_SIGFPE).
fileModificationChecking : Monitoring run-time modified files using timeStampMaster (fileModificationSkew 5, maxFileModificationPolls 20)
allowSystemOperations : Allowing user-supplied system call operations

// * * * * * * * * * * * * * * * * * * * * * * * * * * * * * * * * * * * * * //
Create time

Create mesh for time = 0


PISO: Operating solver in PISO mode

Reading transportProperties

Reading field p

Reading field U

Reading/calculating face flux field phi


Starting time loop

Time = 3.33333e-05

Courant Number mean: 0 max: 0
DILUPBiCGStab:  Solving for Ux, Initial residual = 1, Final residual = 0.000459077, No Iterations 5
DILUPBiCGStab:  Solving for Uy:  solution singularity
DILUPBiCGStab:  Solving for Uz:  solution singularity
linear solve U 4704276
Initializing PETSc
PETSc-cg:  Solving for p, Initial residual = 1, Final residual = 9.95582e-05, No Iterations 2434
linear solve p 7581130
time step continuity errors : sum local = 3.65829e-10, global = 2.65428e-22, cumulative = 2.65428e-22
PETSc-cg:  Solving for p, Initial residual = 0.688738, Final residual = 9.97636e-05, No Iterations 2411
linear solve p 4481018
time step continuity errors : sum local = 5.08095e-10, global = 7.96203e-23, cumulative = 3.45048e-22
ExecutionTime = 47.11 s  ClockTime = 48 s

Time = 6.66667e-05

Courant Number mean: 0.00132244 max: 0.0715438
DILUPBiCGStab:  Solving for Ux, Initial residual = 0.17237, Final residual = 0.000261608, No Iterations 5
DILUPBiCGStab:  Solving for Uy, Initial residual = 0.340772, Final residual = 0.000163002, No Iterations 5
DILUPBiCGStab:  Solving for Uz, Initial residual = 0.995959, Final residual = 0.000787053, No Iterations 5
linear solve U 12694650
PETSc-cg:  Solving for p, Initial residual = 0.592303, Final residual = 9.96071e-05, No Iterations 2358
linear solve p 4379365
time step continuity errors : sum local = 5.16055e-10, global = -1.72924e-22, cumulative = 1.72124e-22
PETSc-cg:  Solving for p, Initial residual = 0.512883, Final residual = 9.98358e-05, No Iterations 2353
linear solve p 4370861
time step continuity errors : sum local = 5.29269e-10, global = -1.0878e-23, cumulative = 1.61246e-22
ExecutionTime = 75.4 s  ClockTime = 76 s

Time = 0.0001

Courant Number mean: 0.00202536 max: 0.0848305
DILUPBiCGStab:  Solving for Ux, Initial residual = 0.0716932, Final residual = 7.77667e-05, No Iterations 5
DILUPBiCGStab:  Solving for Uy, Initial residual = 0.137125, Final residual = 4.17337e-05, No Iterations 5
DILUPBiCGStab:  Solving for Uz, Initial residual = 0.198074, Final residual = 0.000190066, No Iterations 5
linear solve U 9496127
PETSc-cg:  Solving for p, Initial residual = 0.420944, Final residual = 9.99872e-05, No Iterations 2304
linear solve p 4286852
time step continuity errors : sum local = 3.75789e-10, global = 4.10913e-23, cumulative = 2.02338e-22
PETSc-cg:  Solving for p, Initial residual = 0.365661, Final residual = 9.99426e-05, No Iterations 2295
linear solve p 4267718
time step continuity errors : sum local = 3.68429e-10, global = -4.64789e-23, cumulative = 1.55859e-22
ExecutionTime = 100.3 s  ClockTime = 101 s

Time = 0.000133333

Courant Number mean: 0.00251227 max: 0.0887236
DILUPBiCGStab:  Solving for Ux, Initial residual = 0.0466813, Final residual = 3.28405e-05, No Iterations 5
DILUPBiCGStab:  Solving for Uy, Initial residual = 0.0862057, Final residual = 1.70484e-05, No Iterations 5
DILUPBiCGStab:  Solving for Uz, Initial residual = 0.114003, Final residual = 7.09639e-05, No Iterations 5
linear solve U 9489214
PETSc-cg:  Solving for p, Initial residual = 0.209621, Final residual = 9.7955e-05, No Iterations 2307
linear solve p 4289711
time step continuity errors : sum local = 3.30694e-10, global = -3.45596e-23, cumulative = 1.21299e-22
PETSc-cg:  Solving for p, Initial residual = 0.170621, Final residual = 9.76447e-05, No Iterations 1113
linear solve p 2269485
time step continuity errors : sum local = 3.62494e-10, global = -3.57394e-23, cumulative = 8.55597e-23
ExecutionTime = 123.21 s  ClockTime = 124 s

Time = 0.000166667

Courant Number mean: 0.00290365 max: 0.0905868
DILUPBiCGStab:  Solving for Ux, Initial residual = 0.0352208, Final residual = 1.83369e-05, No Iterations 5
DILUPBiCGStab:  Solving for Uy, Initial residual = 0.0624757, Final residual = 1.10924e-05, No Iterations 5
DILUPBiCGStab:  Solving for Uz, Initial residual = 0.0939565, Final residual = 4.19597e-05, No Iterations 5
linear solve U 9530059
PETSc-cg:  Solving for p, Initial residual = 0.121312, Final residual = 9.81161e-05, No Iterations 2291
linear solve p 4260761
time step continuity errors : sum local = 3.08519e-10, global = -4.08901e-23, cumulative = 4.46696e-23
PETSc-cg:  Solving for p, Initial residual = 0.100578, Final residual = 9.87342e-05, No Iterations 1082
linear solve p 2209535
time step continuity errors : sum local = 3.36243e-10, global = -6.28864e-23, cumulative = -1.82168e-23
ExecutionTime = 146.08 s  ClockTime = 147 s

Time = 0.0002

Courant Number mean: 0.00323666 max: 0.0917317
DILUPBiCGStab:  Solving for Ux, Initial residual = 0.0285053, Final residual = 1.21989e-05, No Iterations 5
DILUPBiCGStab:  Solving for Uy, Initial residual = 0.0490366, Final residual = 4.93373e-06, No Iterations 5
DILUPBiCGStab:  Solving for Uz, Initial residual = 0.0816991, Final residual = 3.11098e-05, No Iterations 5
linear solve U 9493538
PETSc-cg:  Solving for p, Initial residual = 0.0717094, Final residual = 9.98992e-05, No Iterations 2277
linear solve p 4246180
time step continuity errors : sum local = 3.0812e-10, global = 7.67146e-23, cumulative = 5.84978e-23
PETSc-cg:  Solving for p, Initial residual = 0.0601706, Final residual = 9.92591e-05, No Iterations 2268
linear solve p 4222612
time step continuity errors : sum local = 3.07138e-10, global = -1.61385e-22, cumulative = -1.02888e-22
ExecutionTime = 170.93 s  ClockTime = 172 s

Time = 0.000233333

Courant Number mean: 0.00352957 max: 0.0925279
DILUPBiCGStab:  Solving for Ux, Initial residual = 0.0240146, Final residual = 8.81858e-06, No Iterations 5
DILUPBiCGStab:  Solving for Uy, Initial residual = 0.0403799, Final residual = 4.84473e-06, No Iterations 5
DILUPBiCGStab:  Solving for Uz, Initial residual = 0.0662511, Final residual = 1.65733e-05, No Iterations 5
linear solve U 9516582
PETSc-cg:  Solving for p, Initial residual = 0.0470394, Final residual = 9.87776e-05, No Iterations 965
linear solve p 2013949
time step continuity errors : sum local = 3.08001e-10, global = -2.66297e-22, cumulative = -3.69185e-22
PETSc-cg:  Solving for p, Initial residual = 0.0402543, Final residual = 9.99832e-05, No Iterations 961
linear solve p 2005433
time step continuity errors : sum local = 3.09944e-10, global = -3.72643e-23, cumulative = -4.06449e-22
ExecutionTime = 191.37 s  ClockTime = 193 s

Time = 0.000266667

Courant Number mean: 0.00379265 max: 0.0931233
DILUPBiCGStab:  Solving for Ux, Initial residual = 0.0207914, Final residual = 7.03597e-06, No Iterations 5
DILUPBiCGStab:  Solving for Uy, Initial residual = 0.0342875, Final residual = 2.79476e-06, No Iterations 5
DILUPBiCGStab:  Solving for Uz, Initial residual = 0.0583501, Final residual = 1.14324e-05, No Iterations 5
linear solve U 9502691
PETSc-cg:  Solving for p, Initial residual = 0.0319986, Final residual = 9.73797e-05, No Iterations 958
linear solve p 2000933
time step continuity errors : sum local = 3.04676e-10, global = -1.84426e-22, cumulative = -5.90874e-22
PETSc-cg:  Solving for p, Initial residual = 0.0281118, Final residual = 9.89183e-05, No Iterations 947
linear solve p 1982165
time step continuity errors : sum local = 3.01066e-10, global = -2.31826e-23, cumulative = -6.14057e-22
ExecutionTime = 211.71 s  ClockTime = 213 s

Time = 0.0003

Courant Number mean: 0.00403247 max: 0.0935903
DILUPBiCGStab:  Solving for Ux, Initial residual = 0.0183529, Final residual = 5.68838e-06, No Iterations 5
DILUPBiCGStab:  Solving for Uy, Initial residual = 0.0297986, Final residual = 2.69543e-06, No Iterations 5
DILUPBiCGStab:  Solving for Uz, Initial residual = 0.0517604, Final residual = 8.20795e-06, No Iterations 5
linear solve U 9538631
PETSc-cg:  Solving for p, Initial residual = 0.0251604, Final residual = 9.9443e-05, No Iterations 947
linear solve p 1989004
time step continuity errors : sum local = 3.07646e-10, global = -2.54811e-22, cumulative = -8.68868e-22
PETSc-cg:  Solving for p, Initial residual = 0.0225412, Final residual = 9.99923e-05, No Iterations 935
linear solve p 1959519
time step continuity errors : sum local = 3.07318e-10, global = -7.65255e-23, cumulative = -9.45394e-22
ExecutionTime = 232.07 s  ClockTime = 234 s

Time = 0.000333333

Courant Number mean: 0.00425373 max: 0.0939692
DILUPBiCGStab:  Solving for Ux, Initial residual = 0.0164418, Final residual = 4.75291e-06, No Iterations 5
DILUPBiCGStab:  Solving for Uy, Initial residual = 0.0263217, Final residual = 1.9221e-06, No Iterations 5
DILUPBiCGStab:  Solving for Uz, Initial residual = 0.0469466, Final residual = 6.29935e-06, No Iterations 5
linear solve U 9500607
PETSc-cg:  Solving for p, Initial residual = 0.0194084, Final residual = 9.89766e-05, No Iterations 936
linear solve p 1962444
time step continuity errors : sum local = 3.08233e-10, global = -6.5861e-23, cumulative = -1.01125e-21
PETSc-cg:  Solving for p, Initial residual = 0.017715, Final residual = 9.94877e-05, No Iterations 912
linear solve p 1922109
time step continuity errors : sum local = 3.02973e-10, global = -2.19373e-22, cumulative = -1.23063e-21
ExecutionTime = 252.33 s  ClockTime = 254 s

Time = 0.000366667

Courant Number mean: 0.00445949 max: 0.0942846
DILUPBiCGStab:  Solving for Ux, Initial residual = 0.0148946, Final residual = 3.98795e-06, No Iterations 5
DILUPBiCGStab:  Solving for Uy, Initial residual = 0.0235761, Final residual = 1.75671e-06, No Iterations 5
DILUPBiCGStab:  Solving for Uz, Initial residual = 0.0425859, Final residual = 5.0882e-06, No Iterations 5
linear solve U 9513013
PETSc-cg:  Solving for p, Initial residual = 0.0166534, Final residual = 9.9612e-05, No Iterations 966
linear solve p 2016124
time step continuity errors : sum local = 3.07795e-10, global = -1.62312e-22, cumulative = -1.39294e-21
PETSc-cg:  Solving for p, Initial residual = 0.0152501, Final residual = 9.93471e-05, No Iterations 941
linear solve p 1970063
time step continuity errors : sum local = 3.04725e-10, global = 6.74198e-23, cumulative = -1.32552e-21
ExecutionTime = 272.71 s  ClockTime = 274 s

Time = 0.0004

Courant Number mean: 0.00465204 max: 0.0945524
DILUPBiCGStab:  Solving for Ux, Initial residual = 0.0136211, Final residual = 3.38125e-06, No Iterations 5
DILUPBiCGStab:  Solving for Uy, Initial residual = 0.0213325, Final residual = 1.41083e-06, No Iterations 5
DILUPBiCGStab:  Solving for Uz, Initial residual = 0.0392358, Final residual = 4.08423e-06, No Iterations 5
linear solve U 9498020
PETSc-cg:  Solving for p, Initial residual = 0.0142434, Final residual = 9.90837e-05, No Iterations 941
linear solve p 1971154
time step continuity errors : sum local = 3.08206e-10, global = -1.59215e-22, cumulative = -1.48474e-21
PETSc-cg:  Solving for p, Initial residual = 0.0132119, Final residual = 9.89059e-05, No Iterations 897
linear solve p 1896895
time step continuity errors : sum local = 3.01896e-10, global = -1.10043e-22, cumulative = -1.59478e-21
ExecutionTime = 292.95 s  ClockTime = 295 s

Time = 0.000433333

Courant Number mean: 0.00483362 max: 0.0947836
DILUPBiCGStab:  Solving for Ux, Initial residual = 0.0125474, Final residual = 2.88321e-06, No Iterations 5
DILUPBiCGStab:  Solving for Uy, Initial residual = 0.0194802, Final residual = 1.26541e-06, No Iterations 5
DILUPBiCGStab:  Solving for Uz, Initial residual = 0.0361192, Final residual = 3.52809e-06, No Iterations 5
linear solve U 9510499
PETSc-cg:  Solving for p, Initial residual = 0.0125739, Final residual = 9.89886e-05, No Iterations 977
linear solve p 2037850
time step continuity errors : sum local = 3.05836e-10, global = -2.28108e-23, cumulative = -1.61759e-21
PETSc-cg:  Solving for p, Initial residual = 0.0116707, Final residual = 9.97702e-05, No Iterations 959
linear solve p 2001810
time step continuity errors : sum local = 3.0585e-10, global = -1.89353e-23, cumulative = -1.63653e-21
ExecutionTime = 313.4 s  ClockTime = 315 s

Time = 0.000466667

Courant Number mean: 0.00500519 max: 0.0949857
DILUPBiCGStab:  Solving for Ux, Initial residual = 0.0116345, Final residual = 2.4811e-06, No Iterations 5
DILUPBiCGStab:  Solving for Uy, Initial residual = 0.0179128, Final residual = 1.08586e-06, No Iterations 5
DILUPBiCGStab:  Solving for Uz, Initial residual = 0.0335923, Final residual = 2.9057e-06, No Iterations 5
linear solve U 9498672
PETSc-cg:  Solving for p, Initial residual = 0.0113165, Final residual = 9.8892e-05, No Iterations 888
linear solve p 1882971
time step continuity errors : sum local = 3.07488e-10, global = -1.0148e-22, cumulative = -1.738e-21
PETSc-cg:  Solving for p, Initial residual = 0.0105397, Final residual = 9.8742e-05, No Iterations 876
linear solve p 1861212
time step continuity errors : sum local = 3.02052e-10, global = -1.16456e-22, cumulative = -1.85446e-21
ExecutionTime = 333.51 s  ClockTime = 335 s

Time = 0.0005

Courant Number mean: 0.0051684 max: 0.0951645
DILUPBiCGStab:  Solving for Ux, Initial residual = 0.0108432, Final residual = 2.15095e-06, No Iterations 5
DILUPBiCGStab:  Solving for Uy, Initial residual = 0.0165788, Final residual = 9.76405e-07, No Iterations 5
DILUPBiCGStab:  Solving for Uz, Initial residual = 0.0312127, Final residual = 2.62175e-06, No Iterations 5
linear solve U 9511407
PETSc-cg:  Solving for p, Initial residual = 0.0103019, Final residual = 9.82544e-05, No Iterations 960
linear solve p 2005448
time step continuity errors : sum local = 3.03428e-10, global = -1.54866e-22, cumulative = -2.00933e-21
PETSc-cg:  Solving for p, Initial residual = 0.00959262, Final residual = 9.99841e-05, No Iterations 942
linear solve p 1980541
time step continuity errors : sum local = 3.06431e-10, global = 7.8339e-24, cumulative = -2.00149e-21
ExecutionTime = 353.89 s  ClockTime = 356 s

Time = 0.000533333

Courant Number mean: 0.00532372 max: 0.0953239
DILUPBiCGStab:  Solving for Ux, Initial residual = 0.0101546, Final residual = 1.87958e-06, No Iterations 5
DILUPBiCGStab:  Solving for Uy, Initial residual = 0.0154228, Final residual = 8.69521e-07, No Iterations 5
DILUPBiCGStab:  Solving for Uz, Initial residual = 0.0293263, Final residual = 2.20703e-06, No Iterations 5
linear solve U 9493411
PETSc-cg:  Solving for p, Initial residual = 0.00941252, Final residual = 9.93053e-05, No Iterations 879
linear solve p 1867455
time step continuity errors : sum local = 3.08711e-10, global = -1.46728e-22, cumulative = -2.14822e-21
PETSc-cg:  Solving for p, Initial residual = 0.00876653, Final residual = 9.84562e-05, No Iterations 868
linear solve p 1847951
time step continuity errors : sum local = 3.01767e-10, global = 3.50632e-23, cumulative = -2.11316e-21
ExecutionTime = 373.99 s  ClockTime = 376 s

Time = 0.000566667

Courant Number mean: 0.00547243 max: 0.0954674
DILUPBiCGStab:  Solving for Ux, Initial residual = 0.00954685, Final residual = 1.65536e-06, No Iterations 5
DILUPBiCGStab:  Solving for Uy, Initial residual = 0.0144172, Final residual = 7.89876e-07, No Iterations 5
DILUPBiCGStab:  Solving for Uz, Initial residual = 0.0275018, Final residual = 2.04128e-06, No Iterations 5
linear solve U 9493493
PETSc-cg:  Solving for p, Initial residual = 0.00871052, Final residual = 9.92117e-05, No Iterations 954
linear solve p 1997300
time step continuity errors : sum local = 3.0619e-10, global = -2.09099e-22, cumulative = -2.32226e-21
PETSc-cg:  Solving for p, Initial residual = 0.0081311, Final residual = 9.98049e-05, No Iterations 939
linear solve p 1971107
time step continuity errors : sum local = 3.05833e-10, global = -2.90741e-22, cumulative = -2.613e-21
ExecutionTime = 394.32 s  ClockTime = 396 s

Time = 0.0006

Courant Number mean: 0.00561478 max: 0.0955973
DILUPBiCGStab:  Solving for Ux, Initial residual = 0.0090085, Final residual = 1.47077e-06, No Iterations 5
DILUPBiCGStab:  Solving for Uy, Initial residual = 0.0135293, Final residual = 7.18527e-07, No Iterations 5
DILUPBiCGStab:  Solving for Uz, Initial residual = 0.0259893, Final residual = 1.73993e-06, No Iterations 5
linear solve U 9523855
PETSc-cg:  Solving for p, Initial residual = 0.0080285, Final residual = 9.88782e-05, No Iterations 868
linear solve p 1850988
time step continuity errors : sum local = 3.07408e-10, global = -1.20853e-22, cumulative = -2.73385e-21
PETSc-cg:  Solving for p, Initial residual = 0.00748831, Final residual = 9.827e-05, No Iterations 857
linear solve p 1828143
time step continuity errors : sum local = 3.01705e-10, global = -2.91781e-23, cumulative = -2.76303e-21
ExecutionTime = 414.39 s  ClockTime = 416 s

Time = 0.000633333

Courant Number mean: 0.00575168 max: 0.0957157
DILUPBiCGStab:  Solving for Ux, Initial residual = 0.00852582, Final residual = 1.31789e-06, No Iterations 5
DILUPBiCGStab:  Solving for Uy, Initial residual = 0.0127442, Final residual = 6.59583e-07, No Iterations 5
DILUPBiCGStab:  Solving for Uz, Initial residual = 0.02453, Final residual = 1.63808e-06, No Iterations 5
linear solve U 9521391
PETSc-cg:  Solving for p, Initial residual = 0.00752611, Final residual = 9.90928e-05, No Iterations 940
linear solve p 1971211
time step continuity errors : sum local = 3.05635e-10, global = 1.02869e-22, cumulative = -2.66016e-21
PETSc-cg:  Solving for p, Initial residual = 0.00701425, Final residual = 9.94127e-05, No Iterations 905
linear solve p 1912016
time step continuity errors : sum local = 3.04593e-10, global = -1.00988e-22, cumulative = -2.76115e-21
ExecutionTime = 434.67 s  ClockTime = 437 s

Time = 0.000666667

Courant Number mean: 0.00588343 max: 0.0958242
DILUPBiCGStab:  Solving for Ux, Initial residual = 0.00809302, Final residual = 1.19165e-06, No Iterations 5
DILUPBiCGStab:  Solving for Uy, Initial residual = 0.0120411, Final residual = 6.08008e-07, No Iterations 5
DILUPBiCGStab:  Solving for Uz, Initial residual = 0.0233345, Final residual = 1.41464e-06, No Iterations 5
linear solve U 9515149
PETSc-cg:  Solving for p, Initial residual = 0.00699182, Final residual = 9.91878e-05, No Iterations 872
linear solve p 1854432
time step continuity errors : sum local = 3.08411e-10, global = 2.28439e-22, cumulative = -2.53271e-21
PETSc-cg:  Solving for p, Initial residual = 0.00651999, Final residual = 9.98641e-05, No Iterations 856
linear solve p 1827925
time step continuity errors : sum local = 3.07036e-10, global = 6.45888e-23, cumulative = -2.46812e-21
ExecutionTime = 454.74 s  ClockTime = 457 s

End

Finalizing PETSc
alising parallel run
================================================================================
hash: 7af89d7f158f8cc8b54be1358b648e48
/*---------------------------------------------------------------------------*\
| =========                 |                                                 |
| \\      /  F ield         | OpenFOAM: The Open Source CFD Toolbox           |
|  \\    /   O peration     | Version:  2112                                  |
|   \\  /    A nd           | Website:  www.openfoam.com                      |
|    \\/     M anipulation  |                                                 |
\*---------------------------------------------------------------------------*/
Build  : d44c8318f0-20220111 OPENFOAM=2112 version=v2112
Arch   : "LSB;label=32;scalar=64"
Exec   : icoFoam -parallel
Date   : Sep 29 2022
Time   : 13:34:13
Host   : hkn0725.localdomain
PID    : 4137802
I/O    : uncollated
Case   : /hkfs/work/workspace/scratch/eq4036-lidDrivenCavity/single_node/mesh/300/matrix_solver/CG_NoPrecond_Ginkgo_CUDA/mpiRank_gko/4/base
nProcs : 4
Hosts  :
(
    (hkn0725.localdomain 4)
)
Pstream initialized with:
    floatTransfer      : 0
    nProcsSimpleSum    : 0
    commsType          : nonBlocking
    polling iterations : 0
trapFpe: Floating point exception trapping enabled (FOAM_SIGFPE).
fileModificationChecking : Monitoring run-time modified files using timeStampMaster (fileModificationSkew 5, maxFileModificationPolls 20)
allowSystemOperations : Allowing user-supplied system call operations

// * * * * * * * * * * * * * * * * * * * * * * * * * * * * * * * * * * * * * //
Create time

Create mesh for time = 0


PISO: Operating solver in PISO mode

Reading transportProperties

Reading field p

Reading field U

Reading/calculating face flux field phi


Starting time loop

Time = 3.33333e-05

Courant Number mean: 0 max: 0
DILUPBiCGStab:  Solving for Ux, Initial residual = 1, Final residual = 0.000459077, No Iterations 5
DILUPBiCGStab:  Solving for Uy:  solution singularity
DILUPBiCGStab:  Solving for Uz:  solution singularity
linear solve U 4627227
[OGL LOG][lduLduBase.H:107] Initialising OGL
	Version:  44ec570
	Branch: repartition 
	Ginkgo version: 1.5.0(develop)
	MPI is GPU aware: 1
	Forces host buffer based communication: 1
	CPU ranks per GPU: 1
	Matrix format: Coo
[OGL LOG][Proc: 0]global_index_init: 0.023 [ms]
[OGL LOG][Proc: 0]global_index_init: 0.001 [ms]
[OGL LOG][Proc: 0]init_host_sparsity_pattern: 283451 [ms]
[OGL LOG][Proc: 0]update_host_matrix_data: 567.387 [ms]
[OGL LOG][Proc: 0]init_precond: 0.132 [ms]
[OGL LOG][StoppingCriterion.H:588] Creating stopping criterion with minIter 0 frequency 10
[OGL LOG][Proc: 0]generate_solver: 0.045 [ms]
[OGL LOG][Proc: 0]solve: 7036.41 [ms]
[OGL LOG][Proc: 0]copy_x_back: 26.943 [ms]
[OGL LOG][lduLduBase.H:294] 
Statistics:
	Time per iteration: 2882 [mu s]
	Time per residual norm calculation: 198.000000 [mu s]
	Time per iteration and DOF: 0.106741 [ns]
	Retrieve results bandwith 2.004000 [GByte/s]
nonecudaGKOCG:  Solving for p, Initial residual = 1, Final residual = 8.57067e-05, No Iterations 2441
linear solve p 295245786
time step continuity errors : sum local = 3.14932e-10, global = 2.6892e-22, cumulative = 2.6892e-22
[OGL LOG][Proc: 0]global_index_init: 0.044 [ms]
[OGL LOG][Proc: 0]global_index_init: 0.001 [ms]
[OGL LOG][Proc: 0]update_host_matrix_data: 502.218 [ms]
[OGL LOG][Proc: 0]init_precond: 0.039 [ms]
[OGL LOG][StoppingCriterion.H:588] Creating stopping criterion with minIter 1464 frequency 10
[OGL LOG][Proc: 0]generate_solver: 0.002 [ms]
[OGL LOG][Proc: 0]solve: 5956.01 [ms]
[OGL LOG][Proc: 0]copy_x_back: 27.899 [ms]
[OGL LOG][lduLduBase.H:294] 
Statistics:
	Time per iteration: 2460 [mu s]
	Time per residual norm calculation: 138.000000 [mu s]
	Time per iteration and DOF: 0.091111 [ns]
	Retrieve results bandwith 1.935000 [GByte/s]
nonecudaGKOCG:  Solving for p, Initial residual = 0.688737, Final residual = 8.9279e-05, No Iterations 2421
linear solve p 8763206
time step continuity errors : sum local = 4.54693e-10, global = -7.90513e-23, cumulative = 1.89869e-22
ExecutionTime = 338.35 s  ClockTime = 341 s

Time = 6.66667e-05

Courant Number mean: 0.00132244 max: 0.0715438
DILUPBiCGStab:  Solving for Ux, Initial residual = 0.17237, Final residual = 0.000261608, No Iterations 5
DILUPBiCGStab:  Solving for Uy, Initial residual = 0.340772, Final residual = 0.000163001, No Iterations 5
DILUPBiCGStab:  Solving for Uz, Initial residual = 0.995973, Final residual = 0.000786869, No Iterations 5
linear solve U 9395234
[OGL LOG][Proc: 0]global_index_init: 0.012 [ms]
[OGL LOG][Proc: 0]global_index_init: 0.001 [ms]
[OGL LOG][Proc: 0]update_host_matrix_data: 506.242 [ms]
[OGL LOG][Proc: 0]init_precond: 0.029 [ms]
[OGL LOG][StoppingCriterion.H:588] Creating stopping criterion with minIter 1452 frequency 10
[OGL LOG][Proc: 0]generate_solver: 0.001 [ms]
[OGL LOG][Proc: 0]solve: 5825.95 [ms]
[OGL LOG][Proc: 0]copy_x_back: 26.623 [ms]
[OGL LOG][lduLduBase.H:294] 
Statistics:
	Time per iteration: 2467 [mu s]
	Time per residual norm calculation: 140.000000 [mu s]
	Time per iteration and DOF: 0.091370 [ns]
	Retrieve results bandwith 2.028000 [GByte/s]
nonecudaGKOCG:  Solving for p, Initial residual = 0.592302, Final residual = 9.38742e-05, No Iterations 2361
linear solve p 8657882
time step continuity errors : sum local = 4.86347e-10, global = 8.02721e-23, cumulative = 2.70141e-22
[OGL LOG][Proc: 0]global_index_init: 0.01 [ms]
[OGL LOG][Proc: 0]global_index_init: 0.001 [ms]
[OGL LOG][Proc: 0]update_host_matrix_data: 502.245 [ms]
[OGL LOG][Proc: 0]init_precond: 0.032 [ms]
[OGL LOG][StoppingCriterion.H:588] Creating stopping criterion with minIter 1416 frequency 10
[OGL LOG][Proc: 0]generate_solver: 0.002 [ms]
[OGL LOG][Proc: 0]solve: 5900.22 [ms]
[OGL LOG][Proc: 0]copy_x_back: 26.849 [ms]
[OGL LOG][lduLduBase.H:294] 
Statistics:
	Time per iteration: 2499 [mu s]
	Time per residual norm calculation: 134.000000 [mu s]
	Time per iteration and DOF: 0.092556 [ns]
	Retrieve results bandwith 2.011000 [GByte/s]
nonecudaGKOCG:  Solving for p, Initial residual = 0.512879, Final residual = 8.32266e-05, No Iterations 2361
linear solve p 8729541
time step continuity errors : sum local = 4.41213e-10, global = 1.13879e-22, cumulative = 3.8402e-22
ExecutionTime = 371.86 s  ClockTime = 374 s

Time = 0.0001

Courant Number mean: 0.00202536 max: 0.0848305
DILUPBiCGStab:  Solving for Ux, Initial residual = 0.0716931, Final residual = 7.77674e-05, No Iterations 5
DILUPBiCGStab:  Solving for Uy, Initial residual = 0.137125, Final residual = 4.17332e-05, No Iterations 5
DILUPBiCGStab:  Solving for Uz, Initial residual = 0.19765, Final residual = 0.000189142, No Iterations 5
linear solve U 9360965
[OGL LOG][Proc: 0]global_index_init: 0.012 [ms]
[OGL LOG][Proc: 0]global_index_init: 0.001 [ms]
[OGL LOG][Proc: 0]update_host_matrix_data: 509.85 [ms]
[OGL LOG][Proc: 0]init_precond: 0.033 [ms]
[OGL LOG][StoppingCriterion.H:588] Creating stopping criterion with minIter 1416 frequency 10
[OGL LOG][Proc: 0]generate_solver: 0.002 [ms]
[OGL LOG][Proc: 0]solve: 5799.78 [ms]
[OGL LOG][Proc: 0]copy_x_back: 28.178 [ms]
[OGL LOG][lduLduBase.H:294] 
Statistics:
	Time per iteration: 2509 [mu s]
	Time per residual norm calculation: 134.000000 [mu s]
	Time per iteration and DOF: 0.092926 [ns]
	Retrieve results bandwith 1.916000 [GByte/s]
nonecudaGKOCG:  Solving for p, Initial residual = 0.420932, Final residual = 9.00969e-05, No Iterations 2311
linear solve p 8628469
time step continuity errors : sum local = 3.38607e-10, global = -4.29437e-23, cumulative = 3.41076e-22
[OGL LOG][Proc: 0]global_index_init: 0.214 [ms]
[OGL LOG][Proc: 0]global_index_init: 0.001 [ms]
[OGL LOG][Proc: 0]update_host_matrix_data: 506.542 [ms]
[OGL LOG][Proc: 0]init_precond: 0.029 [ms]
[OGL LOG][StoppingCriterion.H:588] Creating stopping criterion with minIter 1386 frequency 10
[OGL LOG][Proc: 0]generate_solver: 0.002 [ms]
[OGL LOG][Proc: 0]solve: 5772.4 [ms]
[OGL LOG][Proc: 0]copy_x_back: 26.887 [ms]
[OGL LOG][lduLduBase.H:294] 
Statistics:
	Time per iteration: 2508 [mu s]
	Time per residual norm calculation: 141.000000 [mu s]
	Time per iteration and DOF: 0.092889 [ns]
	Retrieve results bandwith 2.008000 [GByte/s]
nonecudaGKOCG:  Solving for p, Initial residual = 0.365635, Final residual = 9.42181e-05, No Iterations 2301
linear solve p 8585128
time step continuity errors : sum local = 3.47315e-10, global = 2.72585e-23, cumulative = 3.68334e-22
ExecutionTime = 405.2 s  ClockTime = 408 s

Time = 0.000133333

Courant Number mean: 0.00251227 max: 0.0887236
DILUPBiCGStab:  Solving for Ux, Initial residual = 0.0466813, Final residual = 3.28404e-05, No Iterations 5
DILUPBiCGStab:  Solving for Uy, Initial residual = 0.0862057, Final residual = 1.70486e-05, No Iterations 5
DILUPBiCGStab:  Solving for Uz, Initial residual = 0.113884, Final residual = 7.07515e-05, No Iterations 5
linear solve U 9370364
[OGL LOG][Proc: 0]global_index_init: 0.009 [ms]
[OGL LOG][Proc: 0]global_index_init: 0.001 [ms]
[OGL LOG][Proc: 0]update_host_matrix_data: 509.55 [ms]
[OGL LOG][Proc: 0]init_precond: 0.035 [ms]
[OGL LOG][StoppingCriterion.H:588] Creating stopping criterion with minIter 1380 frequency 10
[OGL LOG][Proc: 0]generate_solver: 0.001 [ms]
[OGL LOG][Proc: 0]solve: 5788.36 [ms]
[OGL LOG][Proc: 0]copy_x_back: 27.286 [ms]
[OGL LOG][lduLduBase.H:294] 
Statistics:
	Time per iteration: 2504 [mu s]
	Time per residual norm calculation: 137.000000 [mu s]
	Time per iteration and DOF: 0.092741 [ns]
	Retrieve results bandwith 1.979000 [GByte/s]
nonecudaGKOCG:  Solving for p, Initial residual = 0.209607, Final residual = 8.79143e-05, No Iterations 2311
linear solve p 8606685
time step continuity errors : sum local = 2.9679e-10, global = 2.0851e-23, cumulative = 3.89185e-22
[OGL LOG][Proc: 0]global_index_init: 0.214 [ms]
[OGL LOG][Proc: 0]global_index_init: 0.001 [ms]
[OGL LOG][Proc: 0]update_host_matrix_data: 506.099 [ms]
[OGL LOG][Proc: 0]init_precond: 0.027 [ms]
[OGL LOG][StoppingCriterion.H:588] Creating stopping criterion with minIter 1386 frequency 10
[OGL LOG][Proc: 0]generate_solver: 0.002 [ms]
[OGL LOG][Proc: 0]solve: 5771.18 [ms]
[OGL LOG][Proc: 0]copy_x_back: 27.179 [ms]
[OGL LOG][lduLduBase.H:294] 
Statistics:
	Time per iteration: 2508 [mu s]
	Time per residual norm calculation: 133.000000 [mu s]
	Time per iteration and DOF: 0.092889 [ns]
	Retrieve results bandwith 1.986000 [GByte/s]
nonecudaGKOCG:  Solving for p, Initial residual = 0.170596, Final residual = 9.87281e-05, No Iterations 2301
linear solve p 8581409
time step continuity errors : sum local = 3.36087e-10, global = 8.86442e-24, cumulative = 3.9805e-22
ExecutionTime = 438.48 s  ClockTime = 441 s

Time = 0.000166667

Courant Number mean: 0.00290365 max: 0.0905868
DILUPBiCGStab:  Solving for Ux, Initial residual = 0.0352288, Final residual = 1.83431e-05, No Iterations 5
DILUPBiCGStab:  Solving for Uy, Initial residual = 0.0624477, Final residual = 1.10915e-05, No Iterations 5
DILUPBiCGStab:  Solving for Uz, Initial residual = 0.0894946, Final residual = 3.86562e-05, No Iterations 5
linear solve U 9399543
[OGL LOG][Proc: 0]global_index_init: 0.238 [ms]
[OGL LOG][Proc: 0]global_index_init: 0.001 [ms]
[OGL LOG][Proc: 0]update_host_matrix_data: 506.482 [ms]
[OGL LOG][Proc: 0]init_precond: 0.029 [ms]
[OGL LOG][StoppingCriterion.H:588] Creating stopping criterion with minIter 1380 frequency 10
[OGL LOG][Proc: 0]generate_solver: 0.002 [ms]
[OGL LOG][Proc: 0]solve: 5615.95 [ms]
[OGL LOG][Proc: 0]copy_x_back: 26.743 [ms]
[OGL LOG][lduLduBase.H:294] 
Statistics:
	Time per iteration: 2517 [mu s]
	Time per residual norm calculation: 140.000000 [mu s]
	Time per iteration and DOF: 0.093222 [ns]
	Retrieve results bandwith 2.019000 [GByte/s]
nonecudaGKOCG:  Solving for p, Initial residual = 0.121279, Final residual = 9.60531e-05, No Iterations 2231
linear solve p 8447706
time step continuity errors : sum local = 3.02016e-10, global = -6.49092e-23, cumulative = 3.33141e-22
[OGL LOG][Proc: 0]global_index_init: 0.011 [ms]
[OGL LOG][Proc: 0]global_index_init: 0.001 [ms]
[OGL LOG][Proc: 0]update_host_matrix_data: 505.168 [ms]
[OGL LOG][Proc: 0]init_precond: 0.028 [ms]
[OGL LOG][StoppingCriterion.H:588] Creating stopping criterion with minIter 1338 frequency 10
[OGL LOG][Proc: 0]generate_solver: 0.001 [ms]
================================================================================
hash: 1fe992e7f8c1e04b8b2da77362d34a25
/*---------------------------------------------------------------------------*\
| =========                 |                                                 |
| \\      /  F ield         | OpenFOAM: The Open Source CFD Toolbox           |
|  \\    /   O peration     | Version:  2112                                  |
|   \\  /    A nd           | Website:  www.openfoam.com                      |
|    \\/     M anipulation  |                                                 |
\*---------------------------------------------------------------------------*/
Build  : d44c8318f0-20220111 OPENFOAM=2112 version=v2112
Arch   : "LSB;label=32;scalar=64"
Exec   : icoFoam -parallel
Date   : Sep 29 2022
Time   : 13:34:14
Host   : hkn0720.localdomain
PID    : 3785745
I/O    : uncollated
Case   : /hkfs/work/workspace/scratch/eq4036-lidDrivenCavity/single_node/mesh/200/matrix_solver/CG_NoPrecond_PETSC_CUDA/mpiRank_of/4/base
nProcs : 4
Hosts  :
(
    (hkn0720.localdomain 4)
)
Pstream initialized with:
    floatTransfer      : 0
    nProcsSimpleSum    : 0
    commsType          : nonBlocking
    polling iterations : 0
trapFpe: Floating point exception trapping enabled (FOAM_SIGFPE).
fileModificationChecking : Monitoring run-time modified files using timeStampMaster (fileModificationSkew 5, maxFileModificationPolls 20)
allowSystemOperations : Allowing user-supplied system call operations

// * * * * * * * * * * * * * * * * * * * * * * * * * * * * * * * * * * * * * //
Create time

Create mesh for time = 0


PISO: Operating solver in PISO mode

Reading transportProperties

Reading field p

Reading field U

Reading/calculating face flux field phi


Starting time loop

Time = 5e-05

Courant Number mean: 0 max: 0DDILUPBiCGStab:  Solving for Ux, Initial residual = 1, Final residual = 8.68229e-05, No Iterations 5DDILUPBiCGStab:  Solving for Uy:  solution singularityDDILUPBiCGStab:  Solving for Uz:  solution singularity
linear solve U 1309547IInitializing PETScPPETSc-cg:  Solving for p, Initial residual = 1, Final residual = 9.94904e-05, No Iterations 1614
linear solve p 3831752
time step continuity errors : sum local = 6.57674e-10, global = 6.33156e-22, cumulative = 6.33156e-22PPETSc-cg:  Solving for p, Initial residual = 0.644867, Final residual = 9.99236e-05, No Iterations 1586
linear solve p 1069414
time step continuity errors : sum local = 9.54285e-10, global = 8.4428e-23, cumulative = 7.17584e-22
ExecutionTime = 14 s  ClockTime = 15 s

Time = 0.0001

Courant Number mean: 0.0015614 max: 0.0657801
DILUPBiCGStab:  Solving for Ux, Initial residual = 0.189842, Final residual = 4.73717e-05, No Iterations 5
DILUPBiCGStab:  Solving for Uy, Initial residual = 0.330041, Final residual = 2.54861e-05, No Iterations 5
DILUPBiCGStab:  Solving for Uz, Initial residual = 0.993217, Final residual = 0.000106143, No Iterations 5
linear solve U 2634775
PETSc-cg:  Solving for p, Initial residual = 0.509073, Final residual = 9.67665e-05, No Iterations 1561
linear solve p 1082837
time step continuity errors : sum local = 8.99622e-10, global = 1.77415e-22, cumulative = 8.94999e-22
PETSc-cg:  Solving for p, Initial residual = 0.419761, Final residual = 9.61434e-05, No Iterations 1556
linear solve p 1054206
time step continuity errors : sum local = 9.21455e-10, global = -7.94843e-23, cumulative = 8.15515e-22
ExecutionTime = 20.72 s  ClockTime = 22 s

Time = 0.00015

Courant Number mean: 0.00241164 max: 0.0810514
DILUPBiCGStab:  Solving for Ux, Initial residual = 0.0803497, Final residual = 1.52733e-05, No Iterations 5
DILUPBiCGStab:  Solving for Uy, Initial residual = 0.13729, Final residual = 5.32037e-06, No Iterations 5
DILUPBiCGStab:  Solving for Uz, Initial residual = 0.0907505, Final residual = 1.49825e-05, No Iterations 5
linear solve U 2630990
PETSc-cg:  Solving for p, Initial residual = 0.252576, Final residual = 9.79992e-05, No Iterations 1526
linear solve p 1066081
time step continuity errors : sum local = 7.04755e-10, global = 3.11072e-22, cumulative = 1.12659e-21
PETSc-cg:  Solving for p, Initial residual = 0.208953, Final residual = 9.96041e-05, No Iterations 1516
linear solve p 1029361
time step continuity errors : sum local = 7.08524e-10, global = 1.23759e-22, cumulative = 1.25035e-21
ExecutionTime = 27.39 s  ClockTime = 29 s

Time = 0.0002

Courant Number mean: 0.0029966 max: 0.0859676
DILUPBiCGStab:  Solving for Ux, Initial residual = 0.0511423, Final residual = 7.1213e-06, No Iterations 5
DILUPBiCGStab:  Solving for Uy, Initial residual = 0.0858832, Final residual = 3.10362e-06, No Iterations 5
DILUPBiCGStab:  Solving for Uz, Initial residual = 0.111236, Final residual = 9.05684e-06, No Iterations 5
linear solve U 2635543
PETSc-cg:  Solving for p, Initial residual = 0.122476, Final residual = 9.9257e-05, No Iterations 1485
linear solve p 1041422
time step continuity errors : sum local = 6.70875e-10, global = -2.10682e-22, cumulative = 1.03966e-21
PETSc-cg:  Solving for p, Initial residual = 0.0991889, Final residual = 9.95251e-05, No Iterations 1479
linear solve p 1009894
time step continuity errors : sum local = 6.80196e-10, global = -1.2699e-22, cumulative = 9.12674e-22
ExecutionTime = 34.03 s  ClockTime = 35 s

Time = 0.00025

Courant Number mean: 0.00346145 max: 0.088316
DILUPBiCGStab:  Solving for Ux, Initial residual = 0.0380463, Final residual = 4.12446e-06, No Iterations 5
DILUPBiCGStab:  Solving for Uy, Initial residual = 0.0619921, Final residual = 2.04592e-06, No Iterations 5
DILUPBiCGStab:  Solving for Uz, Initial residual = 0.091271, Final residual = 4.52964e-06, No Iterations 5
linear solve U 2640501
PETSc-cg:  Solving for p, Initial residual = 0.0622084, Final residual = 9.68314e-05, No Iterations 715
linear solve p 569670
time step continuity errors : sum local = 6.94665e-10, global = -1.32463e-22, cumulative = 7.80211e-22
PETSc-cg:  Solving for p, Initial residual = 0.0523299, Final residual = 9.79808e-05, No Iterations 682
linear solve p 524125
time step continuity errors : sum local = 6.66046e-10, global = 1.8715e-22, cumulative = 9.67361e-22
ExecutionTime = 39.71 s  ClockTime = 41 s

Time = 0.0003

Courant Number mean: 0.00385434 max: 0.0897419
DILUPBiCGStab:  Solving for Ux, Initial residual = 0.0304922, Final residual = 2.53159e-06, No Iterations 5
DILUPBiCGStab:  Solving for Uy, Initial residual = 0.0486047, Final residual = 1.25848e-06, No Iterations 5
DILUPBiCGStab:  Solving for Uz, Initial residual = 0.0775642, Final residual = 2.95745e-06, No Iterations 5
linear solve U 2632749
PETSc-cg:  Solving for p, Initial residual = 0.0394262, Final residual = 9.94813e-05, No Iterations 652
linear solve p 539046
time step continuity errors : sum local = 6.70672e-10, global = -1.07552e-22, cumulative = 8.59808e-22
PETSc-cg:  Solving for p, Initial residual = 0.0333535, Final residual = 9.90728e-05, No Iterations 642
linear solve p 500806
time step continuity errors : sum local = 6.63138e-10, global = 5.36504e-23, cumulative = 9.13459e-22
ExecutionTime = 45.34 s  ClockTime = 47 s

Time = 0.00035

Courant Number mean: 0.0041985 max: 0.0907274
DILUPBiCGStab:  Solving for Ux, Initial residual = 0.0255213, Final residual = 1.78739e-06, No Iterations 5
DILUPBiCGStab:  Solving for Uy, Initial residual = 0.0399308, Final residual = 9.05436e-07, No Iterations 5
DILUPBiCGStab:  Solving for Uz, Initial residual = 0.0664005, Final residual = 2.00477e-06, No Iterations 5
linear solve U 2631326
PETSc-cg:  Solving for p, Initial residual = 0.0289463, Final residual = 9.9379e-05, No Iterations 633
linear solve p 528038
time step continuity errors : sum local = 6.91449e-10, global = 3.14017e-22, cumulative = 1.22748e-21
PETSc-cg:  Solving for p, Initial residual = 0.0251102, Final residual = 9.94595e-05, No Iterations 622
linear solve p 487463
time step continuity errors : sum local = 6.73979e-10, global = -1.2651e-22, cumulative = 1.10097e-21
ExecutionTime = 50.94 s  ClockTime = 52 s

Time = 0.0004

Courant Number mean: 0.00450629 max: 0.0914619
DILUPBiCGStab:  Solving for Ux, Initial residual = 0.0219725, Final residual = 1.39489e-06, No Iterations 5
DILUPBiCGStab:  Solving for Uy, Initial residual = 0.0338791, Final residual = 6.59771e-07, No Iterations 5
DILUPBiCGStab:  Solving for Uz, Initial residual = 0.0580051, Final residual = 1.47629e-06, No Iterations 5
linear solve U 2635917
PETSc-cg:  Solving for p, Initial residual = 0.0215723, Final residual = 9.90585e-05, No Iterations 612
linear solve p 511653
time step continuity errors : sum local = 6.75747e-10, global = 5.95376e-24, cumulative = 1.10692e-21
PETSc-cg:  Solving for p, Initial residual = 0.0190533, Final residual = 9.93592e-05, No Iterations 606
linear solve p 478814
time step continuity errors : sum local = 6.72692e-10, global = -6.48639e-23, cumulative = 1.04206e-21
ExecutionTime = 56.52 s  ClockTime = 58 s

Time = 0.00045

Courant Number mean: 0.00478573 max: 0.0920367
DILUPBiCGStab:  Solving for Ux, Initial residual = 0.0193065, Final residual = 1.14741e-06, No Iterations 5
DILUPBiCGStab:  Solving for Uy, Initial residual = 0.0293952, Final residual = 5.29623e-07, No Iterations 5
DILUPBiCGStab:  Solving for Uz, Initial residual = 0.0516192, Final residual = 1.17484e-06, No Iterations 5
linear solve U 2628791
PETSc-cg:  Solving for p, Initial residual = 0.0180658, Final residual = 9.86831e-05, No Iterations 602
linear solve p 496138
time step continuity errors : sum local = 6.83926e-10, global = 2.7282e-22, cumulative = 1.31488e-21
PETSc-cg:  Solving for p, Initial residual = 0.0160822, Final residual = 9.90299e-05, No Iterations 595
linear solve p 471827
time step continuity errors : sum local = 6.75878e-10, global = -5.00703e-24, cumulative = 1.30987e-21
ExecutionTime = 62.08 s  ClockTime = 64 s

Time = 0.0005

Courant Number mean: 0.00504297 max: 0.0925025
DILUPBiCGStab:  Solving for Ux, Initial residual = 0.0172223, Final residual = 9.83946e-07, No Iterations 5
DILUPBiCGStab:  Solving for Uy, Initial residual = 0.0259497, Final residual = 4.45337e-07, No Iterations 5
DILUPBiCGStab:  Solving for Uz, Initial residual = 0.0463692, Final residual = 9.66177e-07, No Iterations 5
linear solve U 2629631
PETSc-cg:  Solving for p, Initial residual = 0.0151857, Final residual = 9.8397e-05, No Iterations 593
linear solve p 501577
time step continuity errors : sum local = 6.77076e-10, global = 1.09751e-22, cumulative = 1.41962e-21
PETSc-cg:  Solving for p, Initial residual = 0.0136088, Final residual = 9.63729e-05, No Iterations 588
linear solve p 468684
time step continuity errors : sum local = 6.59183e-10, global = -5.0626e-23, cumulative = 1.36899e-21
ExecutionTime = 67.63 s  ClockTime = 69 s

Time = 0.00055

Courant Number mean: 0.00528119 max: 0.0928899
DILUPBiCGStab:  Solving for Ux, Initial residual = 0.0155457, Final residual = 8.70752e-07, No Iterations 5
DILUPBiCGStab:  Solving for Uy, Initial residual = 0.0232132, Final residual = 3.94857e-07, No Iterations 5
DILUPBiCGStab:  Solving for Uz, Initial residual = 0.0421217, Final residual = 8.23369e-07, No Iterations 5
linear solve U 2633167
PETSc-cg:  Solving for p, Initial residual = 0.0132311, Final residual = 9.78785e-05, No Iterations 586
linear solve p 490770
time step continuity errors : sum local = 6.79282e-10, global = 1.97138e-22, cumulative = 1.56613e-21
PETSc-cg:  Solving for p, Initial residual = 0.0118931, Final residual = 9.88195e-05, No Iterations 580
linear solve p 463291
time step continuity errors : sum local = 6.78773e-10, global = 2.21351e-22, cumulative = 1.78748e-21
ExecutionTime = 73.17 s  ClockTime = 75 s

Time = 0.0006

Courant Number mean: 0.00550393 max: 0.0932187
DILUPBiCGStab:  Solving for Ux, Initial residual = 0.0141655, Final residual = 8.04726e-07, No Iterations 5
DILUPBiCGStab:  Solving for Uy, Initial residual = 0.0209908, Final residual = 3.53598e-07, No Iterations 5
DILUPBiCGStab:  Solving for Uz, Initial residual = 0.0385298, Final residual = 7.11036e-07, No Iterations 5
linear solve U 2630265
PETSc-cg:  Solving for p, Initial residual = 0.0116784, Final residual = 9.82949e-05, No Iterations 581
linear solve p 490492
time step continuity errors : sum local = 6.80312e-10, global = 1.35335e-22, cumulative = 1.92282e-21
PETSc-cg:  Solving for p, Initial residual = 0.0105335, Final residual = 9.8047e-05, No Iterations 576
linear solve p 461752
time step continuity errors : sum local = 6.74848e-10, global = -2.90159e-23, cumulative = 1.8938e-21
ExecutionTime = 78.7 s  ClockTime = 80 s

Time = 0.00065

Courant Number mean: 0.00571312 max: 0.0935022
DILUPBiCGStab:  Solving for Ux, Initial residual = 0.013011, Final residual = 7.46736e-07, No Iterations 5
DILUPBiCGStab:  Solving for Uy, Initial residual = 0.019148, Final residual = 3.21598e-07, No Iterations 5
DILUPBiCGStab:  Solving for Uz, Initial residual = 0.0355125, Final residual = 6.25068e-07, No Iterations 5
linear solve U 2634775
PETSc-cg:  Solving for p, Initial residual = 0.0103888, Final residual = 9.62491e-05, No Iterations 577
linear solve p 488876
time step continuity errors : sum local = 6.70104e-10, global = -2.87613e-22, cumulative = 1.60619e-21
PETSc-cg:  Solving for p, Initial residual = 0.00939351, Final residual = 9.72535e-05, No Iterations 571
linear solve p 458337
time step continuity errors : sum local = 6.7194e-10, global = 3.56851e-23, cumulative = 1.64187e-21
ExecutionTime = 84.23 s  ClockTime = 86 s

Time = 0.0007

Courant Number mean: 0.00591034 max: 0.09375
DILUPBiCGStab:  Solving for Ux, Initial residual = 0.0120282, Final residual = 6.94885e-07, No Iterations 5
DILUPBiCGStab:  Solving for Uy, Initial residual = 0.0175966, Final residual = 2.9449e-07, No Iterations 5
DILUPBiCGStab:  Solving for Uz, Initial residual = 0.0329037, Final residual = 5.53003e-07, No Iterations 5
linear solve U 2634963
PETSc-cg:  Solving for p, Initial residual = 0.00935822, Final residual = 9.87369e-05, No Iterations 572
linear solve p 484240
time step continuity errors : sum local = 6.86124e-10, global = 2.14111e-22, cumulative = 1.85598e-21
PETSc-cg:  Solving for p, Initial residual = 0.00847485, Final residual = 9.84001e-05, No Iterations 566
linear solve p 455610
time step continuity errors : sum local = 6.80697e-10, global = 1.23581e-22, cumulative = 1.97956e-21
ExecutionTime = 89.76 s  ClockTime = 91 s

Time = 0.00075

Courant Number mean: 0.00609762 max: 0.0939689
DILUPBiCGStab:  Solving for Ux, Initial residual = 0.0111817, Final residual = 6.47418e-07, No Iterations 5
DILUPBiCGStab:  Solving for Uy, Initial residual = 0.0162718, Final residual = 2.72042e-07, No Iterations 5
DILUPBiCGStab:  Solving for Uz, Initial residual = 0.0306561, Final residual = 4.94934e-07, No Iterations 5
linear solve U 2634740
PETSc-cg:  Solving for p, Initial residual = 0.00851856, Final residual = 9.9348e-05, No Iterations 568
linear solve p 473934
time step continuity errors : sum local = 6.92567e-10, global = -2.08036e-23, cumulative = 1.95876e-21
PETSc-cg:  Solving for p, Initial residual = 0.00772794, Final residual = 9.92256e-05, No Iterations 562
linear solve p 452211
time step continuity errors : sum local = 6.88011e-10, global = 2.28457e-22, cumulative = 2.18722e-21
ExecutionTime = 95.27 s  ClockTime = 97 s

Time = 0.0008

Courant Number mean: 0.00627539 max: 0.0941642
DILUPBiCGStab:  Solving for Ux, Initial residual = 0.0104452, Final residual = 6.03319e-07, No Iterations 5
DILUPBiCGStab:  Solving for Uy, Initial residual = 0.0151281, Final residual = 2.52217e-07, No Iterations 5
DILUPBiCGStab:  Solving for Uz, Initial residual = 0.0286777, Final residual = 4.44572e-07, No Iterations 5
linear solve U 2628622
PETSc-cg:  Solving for p, Initial residual = 0.00777125, Final residual = 9.78017e-05, No Iterations 565
linear solve p 486060
time step continuity errors : sum local = 6.82203e-10, global = -1.6754e-22, cumulative = 2.01968e-21
PETSc-cg:  Solving for p, Initial residual = 0.00705595, Final residual = 9.65789e-05, No Iterations 559
linear solve p 451523
time step continuity errors : sum local = 6.71361e-10, global = 5.91269e-22, cumulative = 2.61095e-21
ExecutionTime = 100.79 s  ClockTime = 102 s

Time = 0.00085

Courant Number mean: 0.00644514 max: 0.0943398
DILUPBiCGStab:  Solving for Ux, Initial residual = 0.00979734, Final residual = 5.62532e-07, No Iterations 5
DILUPBiCGStab:  Solving for Uy, Initial residual = 0.0141302, Final residual = 2.34905e-07, No Iterations 5
DILUPBiCGStab:  Solving for Uz, Initial residual = 0.02694, Final residual = 4.03249e-07, No Iterations 5
linear solve U 2632422
PETSc-cg:  Solving for p, Initial residual = 0.00713538, Final residual = 9.89486e-05, No Iterations 560
linear solve p 475226
time step continuity errors : sum local = 6.91673e-10, global = 1.59201e-22, cumulative = 2.77015e-21
PETSc-cg:  Solving for p, Initial residual = 0.00649263, Final residual = 9.98969e-05, No Iterations 553
linear solve p 447278
time step continuity errors : sum local = 6.94953e-10, global = 2.54617e-22, cumulative = 3.02476e-21
ExecutionTime = 106.31 s  ClockTime = 108 s

Time = 0.0009

Courant Number mean: 0.00660769 max: 0.0944988
DILUPBiCGStab:  Solving for Ux, Initial residual = 0.00922435, Final residual = 5.24977e-07, No Iterations 5
DILUPBiCGStab:  Solving for Uy, Initial residual = 0.0132525, Final residual = 2.19468e-07, No Iterations 5
DILUPBiCGStab:  Solving for Uz, Initial residual = 0.0253892, Final residual = 3.66324e-07, No Iterations 5
linear solve U 2634564
PETSc-cg:  Solving for p, Initial residual = 0.00664793, Final residual = 9.60351e-05, No Iterations 558
linear solve p 483717
time step continuity errors : sum local = 6.72343e-10, global = -3.98618e-22, cumulative = 2.62615e-21
PETSc-cg:  Solving for p, Initial residual = 0.00604083, Final residual = 9.88883e-05, No Iterations 550
linear solve p 446117
time step continuity errors : sum local = 6.89132e-10, global = -9.17343e-23, cumulative = 2.53441e-21
ExecutionTime = 111.83 s  ClockTime = 114 s

Time = 0.00095

Courant Number mean: 0.00676324 max: 0.0946436
DILUPBiCGStab:  Solving for Ux, Initial residual = 0.00871202, Final residual = 4.90505e-07, No Iterations 5
DILUPBiCGStab:  Solving for Uy, Initial residual = 0.0124741, Final residual = 2.05587e-07, No Iterations 5
DILUPBiCGStab:  Solving for Uz, Initial residual = 0.0240072, Final residual = 3.35314e-07, No Iterations 5
linear solve U 2631240
PETSc-cg:  Solving for p, Initial residual = 0.00613136, Final residual = 9.90376e-05, No Iterations 553
linear solve p 470945
time step continuity errors : sum local = 6.9392e-10, global = -3.67839e-22, cumulative = 2.16657e-21
PETSc-cg:  Solving for p, Initial residual = 0.00558049, Final residual = 9.74829e-05, No Iterations 547
linear solve p 443926
time step continuity errors : sum local = 6.80925e-10, global = 7.81634e-23, cumulative = 2.24474e-21
ExecutionTime = 117.32 s  ClockTime = 119 s

Time = 0.001

Courant Number mean: 0.00691282 max: 0.0947763
DILUPBiCGStab:  Solving for Ux, Initial residual = 0.00825319, Final residual = 4.58835e-07, No Iterations 5
DILUPBiCGStab:  Solving for Uy, Initial residual = 0.0117795, Final residual = 1.93078e-07, No Iterations 5
DILUPBiCGStab:  Solving for Uz, Initial residual = 0.0227587, Final residual = 3.07481e-07, No Iterations 5
linear solve U 2629733
PETSc-cg:  Solving for p, Initial residual = 0.00576266, Final residual = 9.82262e-05, No Iterations 552
linear solve p 463502
time step continuity errors : sum local = 6.88561e-10, global = 2.98325e-22, cumulative = 2.54306e-21
PETSc-cg:  Solving for p, Initial residual = 0.00524931, Final residual = 9.88063e-05, No Iterations 545
linear solve p 443229
time step continuity errors : sum local = 6.90514e-10, global = 2.22796e-22, cumulative = 2.76586e-21
ExecutionTime = 122.81 s  ClockTime = 125 s

End

Finalizing PETSc
Finalising parallel run

================================================================================
hash: 21f6fb8d585aa4f95904f94664c0c156
/*---------------------------------------------------------------------------*\
| =========                 |                                                 |
| \\      /  F ield         | OpenFOAM: The Open Source CFD Toolbox           |
|  \\    /   O peration     | Version:  2112                                  |
|   \\  /    A nd           | Website:  www.openfoam.com                      |
|    \\/     M anipulation  |                                                 |
\*---------------------------------------------------------------------------*/
Build  : d44c8318f0-20220111 OPENFOAM=2112 version=v2112
Arch   : "LSB;label=32;scalar=64"
Exec   : icoFoam -parallel
Date   : Sep 29 2022
Time   : 13:34:14
Host   : hkn0721.localdomain
PID    : 3185091
I/O    : uncollated
Case   : /hkfs/work/workspace/scratch/eq4036-lidDrivenCavity/single_node/mesh/200/matrix_solver/CG_NoPrecond_Ginkgo_CUDA/mpiRank_gko/4/base
nProcs : 4
Hosts  :
(
    (hkn0721.localdomain 4)
)
Pstream initialized with:
    floatTransfer      : 0
    nProcsSimpleSum    : 0
    commsType          : nonBlocking
    polling iterations : 0
trapFpe: Floating point exception trapping enabled (FOAM_SIGFPE).
fileModificationChecking : Monitoring run-time modified files using timeStampMaster (fileModificationSkew 5, maxFileModificationPolls 20)
allowSystemOperations : Allowing user-supplied system call operations

// * * * * * * * * * * * * * * * * * * * * * * * * * * * * * * * * * * * * * //
Create time

Create mesh for time = 0


PISO: Operating solver in PISO mode

Reading transportProperties

Reading field p

Reading field U

Reading/calculating face flux field phi


Starting time loop

Time = 5e-05

Courant Number mean: 0 max: 0
DILUPBiCGStab:  Solving for Ux, Initial residual = 1, Final residual = 8.68229e-05, No Iterations 5
DILUPBiCGStab:  Solving for Uy:  solution singularity
DILUPBiCGStab:  Solving for Uz:  solution singularity
linear solve U 1288765
[OGL LOG][lduLduBase.H:107] Initialising OGL
	Version:  44ec570
	Branch: repartition 
	Ginkgo version: 1.5.0(develop)
	MPI is GPU aware: 1
	Forces host buffer based communication: 1
	CPU ranks per GPU: 1
	Matrix format: Coo
[OGL LOG][Proc: 0]global_index_init: 0.023 [ms]
[OGL LOG][Proc: 0]global_index_init: 0.001 [ms]
[OGL LOG][Proc: 0]init_host_sparsity_pattern: 38055.7 [ms]
[OGL LOG][Proc: 0]update_host_matrix_data: 170.539 [ms]
[OGL LOG][Proc: 0]init_precond: 0.129 [ms]
[OGL LOG][StoppingCriterion.H:588] Creating stopping criterion with minIter 0 frequency 10
[OGL LOG][Proc: 0]generate_solver: 0.042 [ms]
[OGL LOG][Proc: 0]solve: 1530.66 [ms]
[OGL LOG][Proc: 0]copy_x_back: 5.653 [ms]
[OGL LOG][lduLduBase.H:294] 
Statistics:
	Time per iteration: 944 [mu s]
	Time per residual norm calculation: 154.000000 [mu s]
	Time per iteration and DOF: 0.118000 [ns]
	Retrieve results bandwith 2.830000 [GByte/s]
nonecudaGKOCG:  Solving for p, Initial residual = 1, Final residual = 7.95504e-05, No Iterations 1621
linear solve p 42347872
time step continuity errors : sum local = 5.25866e-10, global = 7.01802e-22, cumulative = 7.01802e-22
[OGL LOG][Proc: 0]global_index_init: 0.054 [ms]
[OGL LOG][Proc: 0]global_index_init: 0.001 [ms]
[OGL LOG][Proc: 0]update_host_matrix_data: 142.107 [ms]
[OGL LOG][Proc: 0]init_precond: 0.036 [ms]
[OGL LOG][StoppingCriterion.H:588] Creating stopping criterion with minIter 972 frequency 10
[OGL LOG][Proc: 0]generate_solver: 0.002 [ms]
[OGL LOG][Proc: 0]solve: 1496.97 [ms]
[OGL LOG][Proc: 0]copy_x_back: 5.701 [ms]
[OGL LOG][lduLduBase.H:294] 
Statistics:
	Time per iteration: 940 [mu s]
	Time per residual norm calculation: 99.000000 [mu s]
	Time per iteration and DOF: 0.117500 [ns]
	Retrieve results bandwith 2.806000 [GByte/s]
nonecudaGKOCG:  Solving for p, Initial residual = 0.644868, Final residual = 8.72362e-05, No Iterations 1591
linear solve p 2286100
time step continuity errors : sum local = 8.33104e-10, global = 8.90554e-23, cumulative = 7.90858e-22
ExecutionTime = 53.92 s  ClockTime = 55 s

Time = 0.0001

Courant Number mean: 0.0015614 max: 0.0657801
DILUPBiCGStab:  Solving for Ux, Initial residual = 0.189842, Final residual = 4.73717e-05, No Iterations 5
DILUPBiCGStab:  Solving for Uy, Initial residual = 0.330041, Final residual = 2.5486e-05, No Iterations 5
DILUPBiCGStab:  Solving for Uz, Initial residual = 0.993229, Final residual = 0.000106085, No Iterations 5
linear solve U 2584756
[OGL LOG][Proc: 0]global_index_init: 0.013 [ms]
[OGL LOG][Proc: 0]global_index_init: 0.001 [ms]
[OGL LOG][Proc: 0]update_host_matrix_data: 141.539 [ms]
[OGL LOG][Proc: 0]init_precond: 0.038 [ms]
[OGL LOG][StoppingCriterion.H:588] Creating stopping criterion with minIter 954 frequency 10
[OGL LOG][Proc: 0]generate_solver: 0.002 [ms]
[OGL LOG][Proc: 0]solve: 1441.25 [ms]
[OGL LOG][Proc: 0]copy_x_back: 5.619 [ms]
[OGL LOG][lduLduBase.H:294] 
Statistics:
	Time per iteration: 917 [mu s]
	Time per residual norm calculation: 97.000000 [mu s]
	Time per iteration and DOF: 0.114625 [ns]
	Retrieve results bandwith 2.847000 [GByte/s]
nonecudaGKOCG:  Solving for p, Initial residual = 0.509059, Final residual = 6.87782e-05, No Iterations 1571
linear solve p 2239854
time step continuity errors : sum local = 6.39399e-10, global = 6.92046e-23, cumulative = 8.60062e-22
[OGL LOG][Proc: 0]global_index_init: 0.183 [ms]
[OGL LOG][Proc: 0]global_index_init: 0.001 [ms]
[OGL LOG][Proc: 0]update_host_matrix_data: 140.03 [ms]
[OGL LOG][Proc: 0]init_precond: 0.029 [ms]
[OGL LOG][StoppingCriterion.H:588] Creating stopping criterion with minIter 942 frequency 10
[OGL LOG][Proc: 0]generate_solver: 0.002 [ms]
[OGL LOG][Proc: 0]solve: 1416.61 [ms]
[OGL LOG][Proc: 0]copy_x_back: 5.804 [ms]
[OGL LOG][lduLduBase.H:294] 
Statistics:
	Time per iteration: 907 [mu s]
	Time per residual norm calculation: 98.000000 [mu s]
	Time per iteration and DOF: 0.113375 [ns]
	Retrieve results bandwith 2.756000 [GByte/s]
nonecudaGKOCG:  Solving for p, Initial residual = 0.419746, Final residual = 8.13174e-05, No Iterations 1561
linear solve p 2207254
time step continuity errors : sum local = 7.79337e-10, global = -4.99863e-24, cumulative = 8.55064e-22
ExecutionTime = 62.79 s  ClockTime = 64 s

Time = 0.00015

Courant Number mean: 0.00241164 max: 0.0810514
DILUPBiCGStab:  Solving for Ux, Initial residual = 0.0803497, Final residual = 1.52731e-05, No Iterations 5
DILUPBiCGStab:  Solving for Uy, Initial residual = 0.13729, Final residual = 5.32112e-06, No Iterations 5
DILUPBiCGStab:  Solving for Uz, Initial residual = 0.0905358, Final residual = 1.47161e-05, No Iterations 5
linear solve U 2583939
[OGL LOG][Proc: 0]global_index_init: 0.01 [ms]
[OGL LOG][Proc: 0]global_index_init: 0.001 [ms]
[OGL LOG][Proc: 0]update_host_matrix_data: 143.15 [ms]
[OGL LOG][Proc: 0]init_precond: 0.03 [ms]
[OGL LOG][StoppingCriterion.H:588] Creating stopping criterion with minIter 936 frequency 10
[OGL LOG][Proc: 0]generate_solver: 0.001 [ms]
[OGL LOG][Proc: 0]solve: 1429.3 [ms]
[OGL LOG][Proc: 0]copy_x_back: 5.723 [ms]
[OGL LOG][lduLduBase.H:294] 
Statistics:
	Time per iteration: 933 [mu s]
	Time per residual norm calculation: 104.000000 [mu s]
	Time per iteration and DOF: 0.116625 [ns]
	Retrieve results bandwith 2.795000 [GByte/s]
nonecudaGKOCG:  Solving for p, Initial residual = 0.2525, Final residual = 9.35609e-05, No Iterations 1531
linear solve p 2224557
time step continuity errors : sum local = 6.7277e-10, global = 1.5314e-22, cumulative = 1.0082e-21
[OGL LOG][Proc: 0]global_index_init: 0.009 [ms]
[OGL LOG][Proc: 0]global_index_init: 0.001 [ms]
[OGL LOG][Proc: 0]update_host_matrix_data: 142.092 [ms]
[OGL LOG][Proc: 0]init_precond: 0.028 [ms]
[OGL LOG][StoppingCriterion.H:588] Creating stopping criterion with minIter 918 frequency 10
[OGL LOG][Proc: 0]generate_solver: 0.001 [ms]
[OGL LOG][Proc: 0]solve: 1413.81 [ms]
[OGL LOG][Proc: 0]copy_x_back: 5.82 [ms]
[OGL LOG][lduLduBase.H:294] 
Statistics:
	Time per iteration: 929 [mu s]
	Time per residual norm calculation: 97.000000 [mu s]
	Time per iteration and DOF: 0.116125 [ns]
	Retrieve results bandwith 2.749000 [GByte/s]
nonecudaGKOCG:  Solving for p, Initial residual = 0.208887, Final residual = 9.85231e-05, No Iterations 1521
linear solve p 2205836
time step continuity errors : sum local = 7.00772e-10, global = -1.14163e-22, cumulative = 8.94041e-22
ExecutionTime = 71.66 s  ClockTime = 73 s

Time = 0.0002

Courant Number mean: 0.0029966 max: 0.0859676
DILUPBiCGStab:  Solving for Ux, Initial residual = 0.0511423, Final residual = 7.12138e-06, No Iterations 5
DILUPBiCGStab:  Solving for Uy, Initial residual = 0.0858832, Final residual = 3.10331e-06, No Iterations 5
DILUPBiCGStab:  Solving for Uz, Initial residual = 0.111248, Final residual = 9.08014e-06, No Iterations 5
linear solve U 2581601
[OGL LOG][Proc: 0]global_index_init: 0.009 [ms]
[OGL LOG][Proc: 0]global_index_init: 0.001 [ms]
[OGL LOG][Proc: 0]update_host_matrix_data: 143.186 [ms]
[OGL LOG][Proc: 0]init_precond: 0.034 [ms]
[OGL LOG][StoppingCriterion.H:588] Creating stopping criterion with minIter 912 frequency 10
[OGL LOG][Proc: 0]generate_solver: 0.002 [ms]
[OGL LOG][Proc: 0]solve: 1376.59 [ms]
[OGL LOG][Proc: 0]copy_x_back: 5.711 [ms]
[OGL LOG][lduLduBase.H:294] 
Statistics:
	Time per iteration: 923 [mu s]
	Time per residual norm calculation: 97.000000 [mu s]
	Time per iteration and DOF: 0.115375 [ns]
	Retrieve results bandwith 2.801000 [GByte/s]
nonecudaGKOCG:  Solving for p, Initial residual = 0.122451, Final residual = 8.58576e-05, No Iterations 1491
linear solve p 2171205
time step continuity errors : sum local = 5.80295e-10, global = -1.31499e-22, cumulative = 7.62542e-22
[OGL LOG][Proc: 0]global_index_init: 0.008 [ms]
[OGL LOG][Proc: 0]global_index_init: 0.001 [ms]
[OGL LOG][Proc: 0]update_host_matrix_data: 141.41 [ms]
[OGL LOG][Proc: 0]init_precond: 0.039 [ms]
[OGL LOG][StoppingCriterion.H:588] Creating stopping criterion with minIter 894 frequency 10
[OGL LOG][Proc: 0]generate_solver: 0.003 [ms]
[OGL LOG][Proc: 0]solve: 1368.44 [ms]
[OGL LOG][Proc: 0]copy_x_back: 5.817 [ms]
[OGL LOG][lduLduBase.H:294] 
Statistics:
	Time per iteration: 923 [mu s]
	Time per residual norm calculation: 103.000000 [mu s]
	Time per iteration and DOF: 0.115375 [ns]
	Retrieve results bandwith 2.750000 [GByte/s]
nonecudaGKOCG:  Solving for p, Initial residual = 0.0991665, Final residual = 9.75304e-05, No Iterations 1481
linear solve p 2163226
time step continuity errors : sum local = 6.66545e-10, global = 1.35414e-22, cumulative = 8.97957e-22
ExecutionTime = 80.42 s  ClockTime = 81 s

Time = 0.00025

Courant Number mean: 0.00346145 max: 0.088316
DILUPBiCGStab:  Solving for Ux, Initial residual = 0.0380463, Final residual = 4.12446e-06, No Iterations 5
DILUPBiCGStab:  Solving for Uy, Initial residual = 0.0619921, Final residual = 2.04608e-06, No Iterations 5
DILUPBiCGStab:  Solving for Uz, Initial residual = 0.0912813, Final residual = 4.52582e-06, No Iterations 5
linear solve U 2587044
[OGL LOG][Proc: 0]global_index_init: 0.009 [ms]
[OGL LOG][Proc: 0]global_index_init: 0.001 [ms]
[OGL LOG][Proc: 0]update_host_matrix_data: 143.871 [ms]
[OGL LOG][Proc: 0]init_precond: 0.036 [ms]
[OGL LOG][StoppingCriterion.H:588] Creating stopping criterion with minIter 888 frequency 10
[OGL LOG][Proc: 0]generate_solver: 0.002 [ms]
[OGL LOG][Proc: 0]solve: 1403.33 [ms]
[OGL LOG][Proc: 0]copy_x_back: 5.742 [ms]
[OGL LOG][lduLduBase.H:294] 
Statistics:
	Time per iteration: 953 [mu s]
	Time per residual norm calculation: 98.000000 [mu s]
	Time per iteration and DOF: 0.119125 [ns]
	Retrieve results bandwith 2.786000 [GByte/s]
nonecudaGKOCG:  Solving for p, Initial residual = 0.0621561, Final residual = 8.95928e-05, No Iterations 1471
linear solve p 2199169
time step continuity errors : sum local = 5.91257e-10, global = -1.97211e-22, cumulative = 7.00745e-22
[OGL LOG][Proc: 0]global_index_init: 0.009 [ms]
[OGL LOG][Proc: 0]global_index_init: 0.001 [ms]
[OGL LOG][Proc: 0]update_host_matrix_data: 143.19 [ms]
[OGL LOG][Proc: 0]init_precond: 0.027 [ms]
[OGL LOG][StoppingCriterion.H:588] Creating stopping criterion with minIter 882 frequency 10
[OGL LOG][Proc: 0]generate_solver: 0.002 [ms]
[OGL LOG][Proc: 0]solve: 1390.83 [ms]
[OGL LOG][Proc: 0]copy_x_back: 5.815 [ms]
[OGL LOG][lduLduBase.H:294] 
Statistics:
	Time per iteration: 951 [mu s]
	Time per residual norm calculation: 97.000000 [mu s]
	Time per iteration and DOF: 0.118875 [ns]
	Retrieve results bandwith 2.751000 [GByte/s]
nonecudaGKOCG:  Solving for p, Initial residual = 0.0522823, Final residual = 9.35788e-05, No Iterations 1461
linear solve p 2185974
time step continuity errors : sum local = 6.185e-10, global = -1.76945e-22, cumulative = 5.238e-22
ExecutionTime = 89.26 s  ClockTime = 90 s

Time = 0.0003

Courant Number mean: 0.00385434 max: 0.0897419
DILUPBiCGStab:  Solving for Ux, Initial residual = 0.0304956, Final residual = 2.53186e-06, No Iterations 5
DILUPBiCGStab:  Solving for Uy, Initial residual = 0.0485939, Final residual = 1.25805e-06, No Iterations 5
DILUPBiCGStab:  Solving for Uz, Initial residual = 0.0765918, Final residual = 2.79002e-06, No Iterations 5
linear solve U 2585010
[OGL LOG][Proc: 0]global_index_init: 0.009 [ms]
[OGL LOG][Proc: 0]global_index_init: 0.001 [ms]
[OGL LOG][Proc: 0]update_host_matrix_data: 143.438 [ms]
[OGL LOG][Proc: 0]init_precond: 0.035 [ms]
[OGL LOG][StoppingCriterion.H:588] Creating stopping criterion with minIter 876 frequency 10
[OGL LOG][Proc: 0]generate_solver: 0.001 [ms]
[OGL LOG][Proc: 0]solve: 1372.08 [ms]
[OGL LOG][Proc: 0]copy_x_back: 5.966 [ms]
[OGL LOG][lduLduBase.H:294] 
Statistics:
	Time per iteration: 939 [mu s]
	Time per residual norm calculation: 99.000000 [mu s]
	Time per iteration and DOF: 0.117375 [ns]
	Retrieve results bandwith 2.681000 [GByte/s]
nonecudaGKOCG:  Solving for p, Initial residual = 0.0393882, Final residual = 8.76794e-05, No Iterations 1461
linear solve p 2166617
time step continuity errors : sum local = 5.73574e-10, global = -1.88194e-22, cumulative = 3.35606e-22
[OGL LOG][Proc: 0]global_index_init: 0.01 [ms]
[OGL LOG][Proc: 0]global_index_init: 0.001 [ms]
[OGL LOG][Proc: 0]update_host_matrix_data: 141.674 [ms]
[OGL LOG][Proc: 0]init_precond: 0.027 [ms]
[OGL LOG][StoppingCriterion.H:588] Creating stopping criterion with minIter 876 frequency 10
[OGL LOG][Proc: 0]generate_solver: 0.001 [ms]
[OGL LOG][Proc: 0]solve: 925.968 [ms]
[OGL LOG][Proc: 0]copy_x_back: 5.799 [ms]
[OGL LOG][lduLduBase.H:294] 
Statistics:
	Time per iteration: 984 [mu s]
	Time per residual norm calculation: 98.000000 [mu s]
	Time per iteration and DOF: 0.123000 [ns]
	Retrieve results bandwith 2.759000 [GByte/s]
nonecudaGKOCG:  Solving for p, Initial residual = 0.0333412, Final residual = 9.89948e-05, No Iterations 941
linear solve p 1719178
time step continuity errors : sum local = 6.85708e-10, global = 1.63787e-22, cumulative = 4.99393e-22
ExecutionTime = 97.56 s  ClockTime = 99 s

Time = 0.00035

Courant Number mean: 0.0041985 max: 0.0907274
DILUPBiCGStab:  Solving for Ux, Initial residual = 0.0255191, Final residual = 1.78728e-06, No Iterations 5
DILUPBiCGStab:  Solving for Uy, Initial residual = 0.0399383, Final residual = 9.0422e-07, No Iterations 5
DILUPBiCGStab:  Solving for Uz, Initial residual = 0.0674937, Final residual = 2.21972e-06, No Iterations 5
linear solve U 2582605
[OGL LOG][Proc: 0]global_index_init: 0.009 [ms]
[OGL LOG][Proc: 0]global_index_init: 0.001 [ms]
[OGL LOG][Proc: 0]update_host_matrix_data: 144.089 [ms]
[OGL LOG][Proc: 0]init_precond: 0.029 [ms]
[OGL LOG][StoppingCriterion.H:588] Creating stopping criterion with minIter 564 frequency 10
[OGL LOG][Proc: 0]generate_solver: 0.001 [ms]
[OGL LOG][Proc: 0]solve: 676.629 [ms]
[OGL LOG][Proc: 0]copy_x_back: 5.682 [ms]
[OGL LOG][lduLduBase.H:294] 
Statistics:
	Time per iteration: 1055 [mu s]
	Time per residual norm calculation: 99.000000 [mu s]
	Time per iteration and DOF: 0.131875 [ns]
	Retrieve results bandwith 2.815000 [GByte/s]
nonecudaGKOCG:  Solving for p, Initial residual = 0.0289688, Final residual = 9.38597e-05, No Iterations 641
linear solve p 1471739
time step continuity errors : sum local = 6.69191e-10, global = 3.41781e-22, cumulative = 8.41174e-22
[OGL LOG][Proc: 0]global_index_init: 0.01 [ms]
[OGL LOG][Proc: 0]global_index_init: 0.001 [ms]
[OGL LOG][Proc: 0]update_host_matrix_data: 142.706 [ms]
[OGL LOG][Proc: 0]init_precond: 0.027 [ms]
[OGL LOG][StoppingCriterion.H:588] Creating stopping criterion with minIter 384 frequency 10
[OGL LOG][Proc: 0]generate_solver: 0.001 [ms]
[OGL LOG][Proc: 0]solve: 660.602 [ms]
[OGL LOG][Proc: 0]copy_x_back: 6.486 [ms]
[OGL LOG][lduLduBase.H:294] 
Statistics:
	Time per iteration: 1046 [mu s]
	Time per residual norm calculation: 99.000000 [mu s]
	Time per iteration and DOF: 0.130750 [ns]
	Retrieve results bandwith 2.466000 [GByte/s]
nonecudaGKOCG:  Solving for p, Initial residual = 0.0251232, Final residual = 9.52916e-05, No Iterations 631
linear solve p 1453750
time step continuity errors : sum local = 6.7662e-10, global = 1.07252e-22, cumulative = 9.48425e-22
ExecutionTime = 104.94 s  ClockTime = 106 s

Time = 0.0004

Courant Number mean: 0.00450629 max: 0.0914618
DILUPBiCGStab:  Solving for Ux, Initial residual = 0.0219745, Final residual = 1.39498e-06, No Iterations 5
DILUPBiCGStab:  Solving for Uy, Initial residual = 0.0338745, Final residual = 6.5991e-07, No Iterations 5
DILUPBiCGStab:  Solving for Uz, Initial residual = 0.0583962, Final residual = 1.5557e-06, No Iterations 5
linear solve U 2582210
[...]
linear solve p 2880387
time step continuity errors : sum local = 4.07471e-10, global = -2.01547e-22, cumulative = -1.63357e-21
ExecutionTime = 310.76 s  ClockTime = 313 s

Time = 0.00048

Courant Number mean: 0.00502117 max: 0.0939916
DILUPBiCGStab:  Solving for Ux, Initial residual = 0.0138816, Final residual = 1.78163e-06, No Iterations 5
DILUPBiCGStab:  Solving for Uy, Initial residual = 0.021184, Final residual = 7.9431e-07, No Iterations 5
DILUPBiCGStab:  Solving for Uz, Initial residual = 0.0387118, Final residual = 1.75715e-06, No Iterations 5
linear solve U 5346927
[OGL LOG][Proc: 0]global_index_init: 0.01 [ms]
[OGL LOG][Proc: 0]global_index_init: 0.001 [ms]
[OGL LOG][Proc: 0]update_host_matrix_data: 300.59 [ms]
[OGL LOG][Proc: 0]init_precond: 0.03 [ms]
[OGL LOG][StoppingCriterion.H:588] Creating stopping criterion with minIter 444 frequency 10
[OGL LOG][Proc: 0]generate_solver: 0.001 [ms]
[OGL LOG][Proc: 0]solve: 1308.6 [ms]
[OGL LOG][Proc: 0]copy_x_back: 15.848 [ms]
[OGL LOG][lduLduBase.H:294] 
Statistics:
	Time per iteration: 1765 [mu s]
	Time per residual norm calculation: 125.000000 [mu s]
	Time per iteration and DOF: 0.112960 [ns]
	Retrieve results bandwith 1.971000 [GByte/s]
nonecudaGKOCG:  Solving for p, Initial residual = 0.0128269, Final residual = 9.42093e-05, No Iterations 741
linear solve p 2905613
time step continuity errors : sum local = 4.14495e-10, global = -4.83226e-22, cumulative = -2.11679e-21
[OGL LOG][Proc: 0]global_index_init: 0.01 [ms]
[OGL LOG][Proc: 0]global_index_init: 0.001 [ms]
[OGL LOG][Proc: 0]update_host_matrix_data: 296.124 [ms]
[OGL LOG][Proc: 0]init_precond: 0.028 [ms]
[OGL LOG][StoppingCriterion.H:588] Creating stopping criterion with minIter 444 frequency 10
[OGL LOG][Proc: 0]generate_solver: 0.001 [ms]
[OGL LOG][Proc: 0]solve: 1292.49 [ms]
[OGL LOG][Proc: 0]copy_x_back: 11.862 [ms]
[OGL LOG][lduLduBase.H:294] 
Statistics:
	Time per iteration: 1744 [mu s]
	Time per residual norm calculation: 117.000000 [mu s]
	Time per iteration and DOF: 0.111616 [ns]
	Retrieve results bandwith 2.634000 [GByte/s]
nonecudaGKOCG:  Solving for p, Initial residual = 0.0117963, Final residual = 7.7985e-05, No Iterations 741
linear solve p 2871652
time step continuity errors : sum local = 3.43194e-10, global = -3.17019e-22, cumulative = -2.43381e-21
ExecutionTime = 325.68 s  ClockTime = 328 s

Time = 0.00052

Courant Number mean: 0.00521487 max: 0.094245
DILUPBiCGStab:  Solving for Ux, Initial residual = 0.0127716, Final residual = 1.54682e-06, No Iterations 5
DILUPBiCGStab:  Solving for Uy, Initial residual = 0.0193333, Final residual = 6.94351e-07, No Iterations 5
DILUPBiCGStab:  Solving for Uz, Initial residual = 0.0357396, Final residual = 1.49364e-06, No Iterations 5
linear solve U 5311810
[OGL LOG][Proc: 0]global_index_init: 0.009 [ms]
[OGL LOG][Proc: 0]global_index_init: 0.001 [ms]
[OGL LOG][Proc: 0]update_host_matrix_data: 297.498 [ms]
[OGL LOG][Proc: 0]init_precond: 0.028 [ms]
[OGL LOG][StoppingCriterion.H:588] Creating stopping criterion with minIter 444 frequency 10
[OGL LOG][Proc: 0]generate_solver: 0.002 [ms]
[OGL LOG][Proc: 0]solve: 1306.2 [ms]
[OGL LOG][Proc: 0]copy_x_back: 16.032 [ms]
[OGL LOG][lduLduBase.H:294] 
Statistics:
	Time per iteration: 1762 [mu s]
	Time per residual norm calculation: 117.000000 [mu s]
	Time per iteration and DOF: 0.112768 [ns]
	Retrieve results bandwith 1.949000 [GByte/s]
nonecudaGKOCG:  Solving for p, Initial residual = 0.0114193, Final residual = 8.29181e-05, No Iterations 741
linear solve p 2892864
time step continuity errors : sum local = 3.69872e-10, global = -2.92631e-22, cumulative = -2.72644e-21
[OGL LOG][Proc: 0]global_index_init: 0.011 [ms]
[OGL LOG][Proc: 0]global_index_init: 0.001 [ms]
[OGL LOG][Proc: 0]update_host_matrix_data: 292.969 [ms]
[OGL LOG][Proc: 0]init_precond: 0.036 [ms]
[OGL LOG][StoppingCriterion.H:588] Creating stopping criterion with minIter 444 frequency 10
[OGL LOG][Proc: 0]generate_solver: 0.002 [ms]
[OGL LOG][Proc: 0]solve: 1273.81 [ms]
[OGL LOG][Proc: 0]copy_x_back: 11.548 [ms]
[OGL LOG][lduLduBase.H:294] 
Statistics:
	Time per iteration: 1742 [mu s]
	Time per residual norm calculation: 123.000000 [mu s]
	Time per iteration and DOF: 0.111488 [ns]
	Retrieve results bandwith 2.706000 [GByte/s]
nonecudaGKOCG:  Solving for p, Initial residual = 0.0105286, Final residual = 8.59024e-05, No Iterations 731
linear solve p 2846900
time step continuity errors : sum local = 3.79264e-10, global = 2.84064e-23, cumulative = -2.69803e-21
ExecutionTime = 340.53 s  ClockTime = 342 s

Time = 0.00056

Courant Number mean: 0.00539778 max: 0.0944665
DILUPBiCGStab:  Solving for Ux, Initial residual = 0.0118254, Final residual = 1.35368e-06, No Iterations 5
DILUPBiCGStab:  Solving for Uy, Initial residual = 0.0177758, Final residual = 6.0883e-07, No Iterations 5
DILUPBiCGStab:  Solving for Uz, Initial residual = 0.0331216, Final residual = 1.29749e-06, No Iterations 5
linear solve U 5342243
[OGL LOG][Proc: 0]global_index_init: 0.1 [ms]
[OGL LOG][Proc: 0]global_index_init: 0.002 [ms]
[OGL LOG][Proc: 0]update_host_matrix_data: 300.113 [ms]
[OGL LOG][Proc: 0]init_precond: 0.028 [ms]
[OGL LOG][StoppingCriterion.H:588] Creating stopping criterion with minIter 438 frequency 10
[OGL LOG][Proc: 0]generate_solver: 0.002 [ms]
[OGL LOG][Proc: 0]solve: 1288.04 [ms]
[OGL LOG][Proc: 0]copy_x_back: 16.01 [ms]
[OGL LOG][lduLduBase.H:294] 
Statistics:
	Time per iteration: 1762 [mu s]
	Time per residual norm calculation: 118.000000 [mu s]
	Time per iteration and DOF: 0.112768 [ns]
	Retrieve results bandwith 1.951000 [GByte/s]
nonecudaGKOCG:  Solving for p, Initial residual = 0.0102342, Final residual = 9.21683e-05, No Iterations 731
linear solve p 2882204
time step continuity errors : sum local = 4.07189e-10, global = 9.49528e-23, cumulative = -2.60308e-21
[OGL LOG][Proc: 0]global_index_init: 0.011 [ms]
[OGL LOG][Proc: 0]global_index_init: 0.001 [ms]
[OGL LOG][Proc: 0]update_host_matrix_data: 294.082 [ms]
[OGL LOG][Proc: 0]init_precond: 0.034 [ms]
[OGL LOG][StoppingCriterion.H:588] Creating stopping criterion with minIter 438 frequency 10
[OGL LOG][Proc: 0]generate_solver: 0.002 [ms]
[OGL LOG][Proc: 0]solve: 1266.65 [ms]
[OGL LOG][Proc: 0]copy_x_back: 11.636 [ms]
[OGL LOG][lduLduBase.H:294] 
Statistics:
	Time per iteration: 1756 [mu s]
	Time per residual norm calculation: 118.000000 [mu s]
	Time per iteration and DOF: 0.112384 [ns]
	Retrieve results bandwith 2.685000 [GByte/s]
nonecudaGKOCG:  Solving for p, Initial residual = 0.00945056, Final residual = 9.86292e-05, No Iterations 721
linear solve p 2845617
time step continuity errors : sum local = 4.34214e-10, global = -8.83563e-23, cumulative = -2.69144e-21
ExecutionTime = 355.44 s  ClockTime = 357 s

Time = 0.0006

Courant Number mean: 0.00557159 max: 0.0946623
DILUPBiCGStab:  Solving for Ux, Initial residual = 0.0110105, Final residual = 1.1974e-06, No Iterations 5
DILUPBiCGStab:  Solving for Uy, Initial residual = 0.0164444, Final residual = 5.45212e-07, No Iterations 5
DILUPBiCGStab:  Solving for Uz, Initial residual = 0.0309036, Final residual = 1.13435e-06, No Iterations 5
linear solve U 5338475
[OGL LOG][Proc: 0]global_index_init: 0.009 [ms]
[OGL LOG][Proc: 0]global_index_init: 0.001 [ms]
[OGL LOG][Proc: 0]update_host_matrix_data: 299.905 [ms]
[OGL LOG][Proc: 0]init_precond: 0.036 [ms]
[OGL LOG][StoppingCriterion.H:588] Creating stopping criterion with minIter 432 frequency 10
[OGL LOG][Proc: 0]generate_solver: 0.002 [ms]
[OGL LOG][Proc: 0]solve: 1294.46 [ms]
[OGL LOG][Proc: 0]copy_x_back: 15.99 [ms]
[OGL LOG][lduLduBase.H:294] 
Statistics:
	Time per iteration: 1770 [mu s]
	Time per residual norm calculation: 143.000000 [mu s]
	Time per iteration and DOF: 0.113280 [ns]
	Retrieve results bandwith 1.954000 [GByte/s]
nonecudaGKOCG:  Solving for p, Initial residual = 0.00935524, Final residual = 8.50085e-05, No Iterations 731
linear solve p 2894560
time step continuity errors : sum local = 3.79457e-10, global = -1.38282e-22, cumulative = -2.82972e-21
[OGL LOG][Proc: 0]global_index_init: 0.01 [ms]
[OGL LOG][Proc: 0]global_index_init: 0.001 [ms]
[OGL LOG][Proc: 0]update_host_matrix_data: 294.595 [ms]
[OGL LOG][Proc: 0]init_precond: 0.029 [ms]
[OGL LOG][StoppingCriterion.H:588] Creating stopping criterion with minIter 438 frequency 10
[OGL LOG][Proc: 0]generate_solver: 0.002 [ms]
[OGL LOG][Proc: 0]solve: 1270.14 [ms]
[OGL LOG][Proc: 0]copy_x_back: 11.572 [ms]
[OGL LOG][lduLduBase.H:294] 
Statistics:
	Time per iteration: 1761 [mu s]
	Time per residual norm calculation: 118.000000 [mu s]
	Time per iteration and DOF: 0.112704 [ns]
	Retrieve results bandwith 2.700000 [GByte/s]
nonecudaGKOCG:  Solving for p, Initial residual = 0.00862898, Final residual = 8.83878e-05, No Iterations 721
linear solve p 2845545
time step continuity errors : sum local = 3.91338e-10, global = -6.82817e-23, cumulative = -2.898e-21
ExecutionTime = 370.34 s  ClockTime = 372 s

Time = 0.00064

Courant Number mean: 0.00573684 max: 0.0948369
DILUPBiCGStab:  Solving for Ux, Initial residual = 0.0102989, Final residual = 1.07226e-06, No Iterations 5
DILUPBiCGStab:  Solving for Uy, Initial residual = 0.0152956, Final residual = 4.92866e-07, No Iterations 5
DILUPBiCGStab:  Solving for Uz, Initial residual = 0.0289178, Final residual = 1.006e-06, No Iterations 5
linear solve U 5346103
[OGL LOG][Proc: 0]global_index_init: 0.009 [ms]
[OGL LOG][Proc: 0]global_index_init: 0.001 [ms]
[OGL LOG][Proc: 0]update_host_matrix_data: 300.211 [ms]
[OGL LOG][Proc: 0]init_precond: 0.028 [ms]
[OGL LOG][StoppingCriterion.H:588] Creating stopping criterion with minIter 432 frequency 10
[OGL LOG][Proc: 0]generate_solver: 0.001 [ms]
[OGL LOG][Proc: 0]solve: 1282.39 [ms]
[OGL LOG][Proc: 0]copy_x_back: 16.389 [ms]
[OGL LOG][lduLduBase.H:294] 
Statistics:
	Time per iteration: 1778 [mu s]
	Time per residual norm calculation: 117.000000 [mu s]
	Time per iteration and DOF: 0.113792 [ns]
	Retrieve results bandwith 1.906000 [GByte/s]
nonecudaGKOCG:  Solving for p, Initial residual = 0.00846257, Final residual = 9.88123e-05, No Iterations 721
linear solve p 2879001
time step continuity errors : sum local = 4.37166e-10, global = -1.64403e-22, cumulative = -3.0624e-21
[OGL LOG][Proc: 0]global_index_init: 0.012 [ms]
[OGL LOG][Proc: 0]global_index_init: 0.001 [ms]
[OGL LOG][Proc: 0]update_host_matrix_data: 295.803 [ms]
[OGL LOG][Proc: 0]init_precond: 0.031 [ms]
[OGL LOG][StoppingCriterion.H:588] Creating stopping criterion with minIter 432 frequency 10
[OGL LOG][Proc: 0]generate_solver: 0.001 [ms]
[OGL LOG][Proc: 0]solve: 1265.74 [ms]
[OGL LOG][Proc: 0]copy_x_back: 11.672 [ms]
[OGL LOG][lduLduBase.H:294] 
Statistics:
	Time per iteration: 1755 [mu s]
	Time per residual norm calculation: 116.000000 [mu s]
	Time per iteration and DOF: 0.112320 [ns]
	Retrieve results bandwith 2.677000 [GByte/s]
nonecudaGKOCG:  Solving for p, Initial residual = 0.00783509, Final residual = 8.10501e-05, No Iterations 721
linear solve p 2841308
time step continuity errors : sum local = 3.59334e-10, global = -1.80056e-22, cumulative = -3.24246e-21
ExecutionTime = 385.23 s  ClockTime = 387 s

Time = 0.00068

Courant Number mean: 0.00589498 max: 0.094994
DILUPBiCGStab:  Solving for Ux, Initial residual = 0.00967307, Final residual = 9.88793e-07, No Iterations 5
DILUPBiCGStab:  Solving for Uy, Initial residual = 0.0142923, Final residual = 4.56128e-07, No Iterations 5
DILUPBiCGStab:  Solving for Uz, Initial residual = 0.0272035, Final residual = 8.95904e-07, No Iterations 5
linear solve U 5332419
[OGL LOG][Proc: 0]global_index_init: 0.009 [ms]
[OGL LOG][Proc: 0]global_index_init: 0.001 [ms]
[OGL LOG][Proc: 0]update_host_matrix_data: 299.262 [ms]
[OGL LOG][Proc: 0]init_precond: 0.041 [ms]
[OGL LOG][StoppingCriterion.H:588] Creating stopping criterion with minIter 432 frequency 10
[OGL LOG][Proc: 0]generate_solver: 0.001 [ms]
[OGL LOG][Proc: 0]solve: 1277.77 [ms]
[OGL LOG][Proc: 0]copy_x_back: 16.064 [ms]
[OGL LOG][lduLduBase.H:294] 
Statistics:
	Time per iteration: 1772 [mu s]
	Time per residual norm calculation: 118.000000 [mu s]
	Time per iteration and DOF: 0.113408 [ns]
	Retrieve results bandwith 1.945000 [GByte/s]
nonecudaGKOCG:  Solving for p, Initial residual = 0.00794308, Final residual = 9.52202e-05, No Iterations 721
linear solve p 2869878
time step continuity errors : sum local = 4.24486e-10, global = -4.92048e-23, cumulative = -3.29167e-21
[OGL LOG][Proc: 0]global_index_init: 0.013 [ms]
[OGL LOG][Proc: 0]global_index_init: 0.002 [ms]
[OGL LOG][Proc: 0]update_host_matrix_data: 294.691 [ms]
[OGL LOG][Proc: 0]init_precond: 0.028 [ms]
[OGL LOG][StoppingCriterion.H:588] Creating stopping criterion with minIter 432 frequency 10
[OGL LOG][Proc: 0]generate_solver: 0.002 [ms]
[OGL LOG][Proc: 0]solve: 1253.49 [ms]
[OGL LOG][Proc: 0]copy_x_back: 11.598 [ms]
[OGL LOG][lduLduBase.H:294] 
Statistics:
	Time per iteration: 1762 [mu s]
	Time per residual norm calculation: 121.000000 [mu s]
	Time per iteration and DOF: 0.112768 [ns]
	Retrieve results bandwith 2.694000 [GByte/s]
nonecudaGKOCG:  Solving for p, Initial residual = 0.00735824, Final residual = 9.81914e-05, No Iterations 711
linear solve p 2828578
time step continuity errors : sum local = 4.35091e-10, global = -1.22323e-22, cumulative = -3.41399e-21
ExecutionTime = 400.07 s  ClockTime = 402 s

Time = 0.00072

Courant Number mean: 0.00604623 max: 0.0951363
DILUPBiCGStab:  Solving for Ux, Initial residual = 0.00911826, Final residual = 9.21618e-07, No Iterations 5
DILUPBiCGStab:  Solving for Uy, Initial residual = 0.0134102, Final residual = 4.26577e-07, No Iterations 5
DILUPBiCGStab:  Solving for Uz, Initial residual = 0.0256517, Final residual = 8.05901e-07, No Iterations 5
linear solve U 5348557
[OGL LOG][Proc: 0]global_index_init: 0.011 [ms]
[OGL LOG][Proc: 0]global_index_init: 0.001 [ms]
[OGL LOG][Proc: 0]update_host_matrix_data: 299.951 [ms]
[OGL LOG][Proc: 0]init_precond: 0.029 [ms]
[OGL LOG][StoppingCriterion.H:588] Creating stopping criterion with minIter 426 frequency 10
[OGL LOG][Proc: 0]generate_solver: 0.002 [ms]
[OGL LOG][Proc: 0]solve: 1279.28 [ms]
[OGL LOG][Proc: 0]copy_x_back: 15.905 [ms]
[OGL LOG][lduLduBase.H:294] 
Statistics:
	Time per iteration: 1774 [mu s]
	Time per residual norm calculation: 117.000000 [mu s]
	Time per iteration and DOF: 0.113536 [ns]
	Retrieve results bandwith 1.964000 [GByte/s]
nonecudaGKOCG:  Solving for p, Initial residual = 0.00729275, Final residual = 9.69417e-05, No Iterations 721
linear solve p 2874697
time step continuity errors : sum local = 4.30023e-10, global = -3.21877e-22, cumulative = -3.73587e-21
[OGL LOG][Proc: 0]global_index_init: 0.01 [ms]
[OGL LOG][Proc: 0]global_index_init: 0.001 [ms]
[OGL LOG][Proc: 0]update_host_matrix_data: 294.383 [ms]
[OGL LOG][Proc: 0]init_precond: 0.035 [ms]
[OGL LOG][StoppingCriterion.H:588] Creating stopping criterion with minIter 432 frequency 10
[OGL LOG][Proc: 0]generate_solver: 0.002 [ms]
[OGL LOG][Proc: 0]solve: 1267.3 [ms]
[OGL LOG][Proc: 0]copy_x_back: 11.49 [ms]
[OGL LOG][lduLduBase.H:294] 
Statistics:
	Time per iteration: 1757 [mu s]
	Time per residual norm calculation: 118.000000 [mu s]
	Time per iteration and DOF: 0.112448 [ns]
	Retrieve results bandwith 2.719000 [GByte/s]
nonecudaGKOCG:  Solving for p, Initial residual = 0.00673777, Final residual = 8.19607e-05, No Iterations 721
linear solve p 2846941
time step continuity errors : sum local = 3.64377e-10, global = 2.41971e-23, cumulative = -3.71167e-21
ExecutionTime = 414.96 s  ClockTime = 417 s

Time = 0.00076

Courant Number mean: 0.0061914 max: 0.0952659
DILUPBiCGStab:  Solving for Ux, Initial residual = 0.00862235, Final residual = 8.61174e-07, No Iterations 5
DILUPBiCGStab:  Solving for Uy, Initial residual = 0.0126273, Final residual = 4.0065e-07, No Iterations 5
DILUPBiCGStab:  Solving for Uz, Initial residual = 0.024293, Final residual = 7.26679e-07, No Iterations 5
linear solve U 5335391
[OGL LOG][Proc: 0]global_index_init: 0.01 [ms]
[OGL LOG][Proc: 0]global_index_init: 0.001 [ms]
[OGL LOG][Proc: 0]update_host_matrix_data: 299.569 [ms]
[OGL LOG][Proc: 0]init_precond: 0.035 [ms]
[OGL LOG][StoppingCriterion.H:588] Creating stopping criterion with minIter 432 frequency 10
[OGL LOG][Proc: 0]generate_solver: 0.003 [ms]
[OGL LOG][Proc: 0]solve: 1279.98 [ms]
[OGL LOG][Proc: 0]copy_x_back: 16.109 [ms]
[OGL LOG][lduLduBase.H:294] 
Statistics:
	Time per iteration: 1775 [mu s]
	Time per residual norm calculation: 126.000000 [mu s]
	Time per iteration and DOF: 0.113600 [ns]
	Retrieve results bandwith 1.939000 [GByte/s]
nonecudaGKOCG:  Solving for p, Initial residual = 0.00689148, Final residual = 9.78298e-05, No Iterations 721
linear solve p 2879490
time step continuity errors : sum local = 4.36633e-10, global = -2.56033e-22, cumulative = -3.9677e-21
[OGL LOG][Proc: 0]global_index_init: 0.011 [ms]
[OGL LOG][Proc: 0]global_index_init: 0.001 [ms]
[OGL LOG][Proc: 0]update_host_matrix_data: 295.513 [ms]
[OGL LOG][Proc: 0]init_precond: 0.031 [ms]
[OGL LOG][StoppingCriterion.H:588] Creating stopping criterion with minIter 432 frequency 10
[OGL LOG][Proc: 0]generate_solver: 0.001 [ms]
[OGL LOG][Proc: 0]solve: 1251.68 [ms]
[OGL LOG][Proc: 0]copy_x_back: 11.509 [ms]
[OGL LOG][lduLduBase.H:294] 
Statistics:
	Time per iteration: 1760 [mu s]
	Time per residual norm calculation: 117.000000 [mu s]
	Time per iteration and DOF: 0.112640 [ns]
	Retrieve results bandwith 2.715000 [GByte/s]
nonecudaGKOCG:  Solving for p, Initial residual = 0.0063852, Final residual = 9.38642e-05, No Iterations 711
linear solve p 2830656
time step continuity errors : sum local = 4.17349e-10, global = -1.77885e-22, cumulative = -4.14559e-21
ExecutionTime = 429.82 s  ClockTime = 432 s

Time = 0.0008

Courant Number mean: 0.00633119 max: 0.0953847
DILUPBiCGStab:  Solving for Ux, Initial residual = 0.00817695, Final residual = 8.06327e-07, No Iterations 5
DILUPBiCGStab:  Solving for Uy, Initial residual = 0.011929, Final residual = 3.77141e-07, No Iterations 5
DILUPBiCGStab:  Solving for Uz, Initial residual = 0.0230457, Final residual = 6.60493e-07, No Iterations 5
linear solve U 5342276
[OGL LOG][Proc: 0]global_index_init: 0.01 [ms]
[OGL LOG][Proc: 0]global_index_init: 0.001 [ms]
[OGL LOG][Proc: 0]update_host_matrix_data: 299.794 [ms]
[OGL LOG][Proc: 0]init_precond: 0.027 [ms]
[OGL LOG][StoppingCriterion.H:588] Creating stopping criterion with minIter 426 frequency 10
[OGL LOG][Proc: 0]generate_solver: 0.001 [ms]
[OGL LOG][Proc: 0]solve: 1297.12 [ms]
[OGL LOG][Proc: 0]copy_x_back: 16.496 [ms]
[OGL LOG][lduLduBase.H:294] 
Statistics:
	Time per iteration: 1774 [mu s]
	Time per residual norm calculation: 118.000000 [mu s]
	Time per iteration and DOF: 0.113536 [ns]
	Retrieve results bandwith 1.894000 [GByte/s]
nonecudaGKOCG:  Solving for p, Initial residual = 0.00634401, Final residual = 9.48388e-05, No Iterations 731
linear solve p 2893176
time step continuity errors : sum local = 4.21575e-10, global = -2.97387e-22, cumulative = -4.44297e-21
[OGL LOG][Proc: 0]global_index_init: 0.01 [ms]
[OGL LOG][Proc: 0]global_index_init: 0.001 [ms]
[OGL LOG][Proc: 0]update_host_matrix_data: 295.749 [ms]
[OGL LOG][Proc: 0]init_precond: 0.028 [ms]
[OGL LOG][StoppingCriterion.H:588] Creating stopping criterion with minIter 438 frequency 10
[OGL LOG][Proc: 0]generate_solver: 0.001 [ms]
[OGL LOG][Proc: 0]solve: 1246.4 [ms]
[OGL LOG][Proc: 0]copy_x_back: 11.553 [ms]
[OGL LOG][lduLduBase.H:294] 
Statistics:
	Time per iteration: 1753 [mu s]
	Time per residual norm calculation: 117.000000 [mu s]
	Time per iteration and DOF: 0.112192 [ns]
	Retrieve results bandwith 2.704000 [GByte/s]
nonecudaGKOCG:  Solving for p, Initial residual = 0.00584539, Final residual = 9.90251e-05, No Iterations 711
linear solve p 2823642
time step continuity errors : sum local = 4.39533e-10, global = -2.39985e-22, cumulative = -4.68296e-21
ExecutionTime = 444.7 s  ClockTime = 447 s

End

Finalising parallel run
================================================================================
