hash: 7cbe58b44084b9236c78630c98b52420
/*---------------------------------------------------------------------------*\
| =========                 |                                                 |
| \\      /  F ield         | OpenFOAM: The Open Source CFD Toolbox           |
|  \\    /   O peration     | Version:  2112                                  |
|   \\  /    A nd           | Website:  www.openfoam.com                      |
|    \\/     M anipulation  |                                                 |
\*---------------------------------------------------------------------------*/
Build  : d44c8318f0-20220111 OPENFOAM=2112 version=v2112
Arch   : "LSB;label=32;scalar=64"
Exec   : icoFoam -parallel
Date   : Oct 09 2022
Time   : 21:48:37
Host   : hkn0512.localdomain
PID    : 2786789
I/O    : uncollated
================================================================================
hash: 6aa745699cc42954a120363ebd9f688e
/*---------------------------------------------------------------------------*\
| =========                 |                                                 |
| \\      /  F ield         | OpenFOAM: The Open Source CFD Toolbox           |
|  \\    /   O peration     | Version:  2112                                  |
|   \\  /    A nd           | Website:  www.openfoam.com                      |
|    \\/     M anipulation  |                                                 |
\*---------------------------------------------------------------------------*/
Build  : d44c8318f0-20220111 OPENFOAM=2112 version=v2112
Arch   : "LSB;label=32;scalar=64"
Exec   : icoFoam -parallel
Date   : Oct 09 2022
Time   : 21:48:36
Host   : hkn0513.localdomain
PID    : 2837512
I/O    : uncollated
Case   : /hkfs/work/workspace/scratch/eq4036-lidDrivenCavity/oversubscribe/mesh/400/matrix_solver/CG_NoPrecond_Ginkgo_CUDA/mpiRank_gko/40/base
nProcs : 40
Hosts  :
(
    (hkn0513.localdomain 40)
)
Pstream initialized with:
    floatTransfer      : 0
    nProcsSimpleSum    : 0
    commsType          : nonBlocking
    polling iterations : 0
trapFpe: Floating point exception trapping enabled (FOAM_SIGFPE).
fileModificationChecking : Monitoring run-time modified files using timeStampMaster (fileModificationSkew 5, maxFileModificationPolls 20)
allowSystemOperations : Allowing user-supplied system call operations

// * * * * * * * * * * * * * * * * * * * * * * * * * * * * * * * * * * * * * //
Create time

Create mesh for time = 0


PISO: Operating solver in PISO mode

Reading transportProperties

Reading field p

Reading field U

Reading/calculating face flux field phi


Starting time loop

Time = 2.5e-05

Courant Number mean: 0 max: 0
DILUPBiCGStab:  Solving for Ux, Initial residual = 1, Final residual = 0.00140429, No Iterations 5
DILUPBiCGStab:  Solving for Uy:  solution singularity
DILUPBiCGStab:  Solving for Uz:  solution singularity
linear solve U 2745490
[OGL LOG][lduLduBase.H:113] Initialising OGL
	OGL commit:  655b9fe+
	Branch: distributed-update 
	Ginkgo version: 1.5.0 ( develop)
	Ginkgo commit: 33f63e9
	MPI is GPU aware: 1
	Forces host buffer based communication: 0
	CPU ranks per GPU: 1
	Matrix format: Coo
	End OGL_INFO
[OGL LOG][Proc: 0]global_index_init: 52.466 [ms]
[OGL LOG][Proc: 0]p_local_cols: call_init: 0.001 [ms]
[OGL LOG][Proc: 0]p_local_rows: call_init: 0 [ms]
[OGL LOG][Proc: 0]p_local_ldu_map: call_init: 0 [ms]
[OGL LOG][Proc: 0]p_local_coeffs: call_init: 0 [ms]
[OGL LOG][Proc: 0]p_non_local_cols: call_init: 0 [ms]
[OGL LOG][Proc: 0]p_non_local_rows: call_init: 0 [ms]
[OGL LOG][Proc: 0]p_non_local_ldu_map: call_init: 0 [ms]
[OGL LOG][Proc: 0]p_non_local_coeffs: call_init: 0 [ms]
[OGL LOG][Proc: 0]init_local_sparsity_pattern: 467.827 [ms]
[OGL LOG][Proc: 0]init_non_local_sparsity_pattern: 47.766 [ms]
[OGL LOG][Proc: 0]update_local_matrix_data: 161.051 [ms]
[OGL LOG][Proc: 0]update_non_local_matrix_data: 4.403 [ms]
[OGL LOG][Proc: 0]device_partition: call_init: 0 [ms]
[OGL LOG][Proc: 0]p_matrix: call_init: 0 [ms]
[OGL LOG][Proc: 0]p_rhs: call_init: 0 [ms]
[OGL LOG][Proc: 0]p_solution: call_init: 0 [ms]
[OGL LOG][Proc: 0]init_precond: 0.065 [ms]
[OGL LOG][StoppingCriterion.H:588] Creating stopping criterion with minIter 0 frequency 10
[OGL LOG][Proc: 0]generate_solver: 0.027 [ms]
[OGL LOG][Proc: 0]solve: 43264.9 [ms]
[OGL LOG][Proc: 0]copy_x_back: 29.695 [ms]
[OGL LOG][lduLduBase.H:303] 
Statistics:
	Time per iteration: 13267 [mu s]
	Time per residual norm calculation: 4696.000000 [mu s]
	Time per iteration and DOF: 0.207297 [ns]
	Retrieve results bandwith 0.431000 [GByte/s]
nonecudaGKOCG:  Solving for p, Initial residual = 1, Final residual = 9.18818e-05, No Iterations 3261
linear solve p 55195670
time step continuity errors : sum local = 2.25008e-10, global = 3.30725e-23, cumulative = 3.30725e-23
[OGL LOG][Proc: 0]global_index_init: 0.046 [ms]
[OGL LOG][Proc: 0]p_local_coeffs: call_update: 0.002 [ms]
[OGL LOG][Proc: 0]p_non_local_coeffs: call_update: 0 [ms]
[OGL LOG][Proc: 0]update_local_matrix_data: 150.668 [ms]
[OGL LOG][Proc: 0]update_non_local_matrix_data: 1.667 [ms]
[OGL LOG][Proc: 0]p_matrix: call_update: 66.271 [ms]
[OGL LOG][Proc: 0]p_rhs: call_update: 35.149 [ms]
[OGL LOG][Proc: 0]init_precond: 0.039 [ms]
[OGL LOG][StoppingCriterion.H:588] Creating stopping criterion with minIter 1956 frequency 10
[OGL LOG][Proc: 0]generate_solver: 0.001 [ms]
[OGL LOG][Proc: 0]solve: 41905.5 [ms]
[OGL LOG][Proc: 0]copy_x_back: 29.009 [ms]
[OGL LOG][lduLduBase.H:303] 
Statistics:
	Time per iteration: 12929 [mu s]
	Time per residual norm calculation: 5072.000000 [mu s]
	Time per iteration and DOF: 0.202016 [ns]
	Retrieve results bandwith 0.441000 [GByte/s]
nonecudaGKOCG:  Solving for p, Initial residual = 0.718373, Final residual = 9.40822e-05, No Iterations 3241
linear solve p 42223175
time step continuity errors : sum local = 3.09833e-10, global = 5.21138e-23, cumulative = 8.51864e-23
ExecutionTime = 103.44 s  ClockTime = 112 s

Time = 5e-05

Courant Number mean: 0.00116722 max: 0.0751111
DILUPBiCGStab:  Solving for Ux, Initial residual = 0.159865, Final residual = 0.000909794, No Iterations 5
DILUPBiCGStab:  Solving for Uy, Initial residual = 0.348721, Final residual = 0.000996341, No Iterations 5
DILUPBiCGStab:  Solving for Uz, Initial residual = 0.994529, Final residual = 0.00377151, No Iterations 5
linear solve U 5625536
[OGL LOG][Proc: 0]global_index_init: 0.065 [ms]
[OGL LOG][Proc: 0]p_local_coeffs: call_update: 0 [ms]
[OGL LOG][Proc: 0]p_non_local_coeffs: call_update: 0 [ms]
[OGL LOG][Proc: 0]update_local_matrix_data: 160.632 [ms]
[OGL LOG][Proc: 0]update_non_local_matrix_data: 0.963 [ms]
[OGL LOG][Proc: 0]p_matrix: call_update: 74.537 [ms]
[OGL LOG][Proc: 0]p_rhs: call_update: 25.956 [ms]
[OGL LOG][Proc: 0]init_precond: 0.029 [ms]
[OGL LOG][StoppingCriterion.H:588] Creating stopping criterion with minIter 1944 frequency 10
[OGL LOG][Proc: 0]generate_solver: 0.002 [ms]
[OGL LOG][Proc: 0]solve: 41125.4 [ms]
[OGL LOG][Proc: 0]copy_x_back: 26.505 [ms]
[OGL LOG][lduLduBase.H:303] 
Statistics:
	Time per iteration: 12928 [mu s]
	Time per residual norm calculation: 3879.000000 [mu s]
	Time per iteration and DOF: 0.202000 [ns]
	Retrieve results bandwith 0.482000 [GByte/s]
nonecudaGKOCG:  Solving for p, Initial residual = 0.66536, Final residual = 9.77208e-05, No Iterations 3181
linear solve p 41449693
time step continuity errors : sum local = 3.5393e-10, global = -1.1641e-23, cumulative = 7.35453e-23
[OGL LOG][Proc: 0]global_index_init: 0.601 [ms]
[OGL LOG][Proc: 0]p_local_coeffs: call_update: 0 [ms]
[OGL LOG][Proc: 0]p_non_local_coeffs: call_update: 0 [ms]
[OGL LOG][Proc: 0]update_local_matrix_data: 154.106 [ms]
[OGL LOG][Proc: 0]update_non_local_matrix_data: 0.865 [ms]
[OGL LOG][Proc: 0]p_matrix: call_update: 69.321 [ms]
[OGL LOG][Proc: 0]p_rhs: call_update: 28.572 [ms]
[OGL LOG][Proc: 0]init_precond: 0.031 [ms]
[OGL LOG][StoppingCriterion.H:588] Creating stopping criterion with minIter 1908 frequency 10
[OGL LOG][Proc: 0]generate_solver: 0.002 [ms]
[OGL LOG][Proc: 0]solve: 41133.9 [ms]
[OGL LOG][Proc: 0]copy_x_back: 28.607 [ms]
[OGL LOG][lduLduBase.H:303] 
Statistics:
	Time per iteration: 12931 [mu s]
	Time per residual norm calculation: 5066.000000 [mu s]
	Time per iteration and DOF: 0.202047 [ns]
	Retrieve results bandwith 0.447000 [GByte/s]
nonecudaGKOCG:  Solving for p, Initial residual = 0.590889, Final residual = 8.60229e-05, No Iterations 3181
linear solve p 41447990
time step continuity errors : sum local = 3.17042e-10, global = 1.79484e-23, cumulative = 9.14938e-23
ExecutionTime = 196.25 s  ClockTime = 206 s

Time = 7.5e-05

Courant Number mean: 0.00178036 max: 0.0870157
DILUPBiCGStab:  Solving for Ux, Initial residual = 0.0661639, Final residual = 0.000272627, No Iterations 5
DILUPBiCGStab:  Solving for Uy, Initial residual = 0.138219, Final residual = 0.000287615, No Iterations 5
DILUPBiCGStab:  Solving for Uz, Initial residual = 0.437982, Final residual = 0.00198716, No Iterations 5
linear solve U 5638309
[OGL LOG][Proc: 0]global_index_init: 4.467 [ms]
[OGL LOG][Proc: 0]p_local_coeffs: call_update: 0 [ms]
[OGL LOG][Proc: 0]p_non_local_coeffs: call_update: 0 [ms]
[OGL LOG][Proc: 0]update_local_matrix_data: 157.665 [ms]
[OGL LOG][Proc: 0]update_non_local_matrix_data: 1.667 [ms]
[OGL LOG][Proc: 0]p_matrix: call_update: 72.925 [ms]
[OGL LOG][Proc: 0]p_rhs: call_update: 28.647 [ms]
[OGL LOG][Proc: 0]init_precond: 0.03 [ms]
[OGL LOG][StoppingCriterion.H:588] Creating stopping criterion with minIter 1908 frequency 10
[OGL LOG][Proc: 0]generate_solver: 0.002 [ms]
[OGL LOG][Proc: 0]solve: 40472.8 [ms]
[OGL LOG][Proc: 0]copy_x_back: 27.492 [ms]
[OGL LOG][lduLduBase.H:303] 
Statistics:
	Time per iteration: 12926 [mu s]
	Time per residual norm calculation: 5074.000000 [mu s]
	Time per iteration and DOF: 0.201969 [ns]
	Retrieve results bandwith 0.465000 [GByte/s]
nonecudaGKOCG:  Solving for p, Initial residual = 0.563526, Final residual = 9.88404e-05, No Iterations 3131
linear solve p 40801697
time step continuity errors : sum local = 2.54018e-10, global = -1.84478e-23, cumulative = 7.30459e-23
[OGL LOG][Proc: 0]global_index_init: 0.119 [ms]
[OGL LOG][Proc: 0]p_local_coeffs: call_update: 0 [ms]
[OGL LOG][Proc: 0]p_non_local_coeffs: call_update: 0 [ms]
[OGL LOG][Proc: 0]update_local_matrix_data: 154.188 [ms]
[OGL LOG][Proc: 0]update_non_local_matrix_data: 1.019 [ms]
[OGL LOG][Proc: 0]p_matrix: call_update: 73.363 [ms]
[OGL LOG][Proc: 0]p_rhs: call_update: 24.789 [ms]
[OGL LOG][Proc: 0]init_precond: 0.032 [ms]
[OGL LOG][StoppingCriterion.H:588] Creating stopping criterion with minIter 1878 frequency 10
[OGL LOG][Proc: 0]generate_solver: 0.001 [ms]
[OGL LOG][Proc: 0]solve: 40478.6 [ms]
[OGL LOG][Proc: 0]copy_x_back: 29.525 [ms]
[OGL LOG][lduLduBase.H:303] 
Statistics:
	Time per iteration: 12928 [mu s]
	Time per residual norm calculation: 5085.000000 [mu s]
	Time per iteration and DOF: 0.202000 [ns]
	Retrieve results bandwith 0.433000 [GByte/s]
nonecudaGKOCG:  Solving for p, Initial residual = 0.505719, Final residual = 9.38472e-05, No Iterations 3131
linear solve p 40796724
time step continuity errors : sum local = 2.35989e-10, global = -3.36362e-23, cumulative = 3.94097e-23
ExecutionTime = 287.75 s  ClockTime = 297 s

Time = 0.0001

Courant Number mean: 0.00220756 max: 0.0903125
DILUPBiCGStab:  Solving for Ux, Initial residual = 0.0437051, Final residual = 0.000122161, No Iterations 5
DILUPBiCGStab:  Solving for Uy, Initial residual = 0.0872262, Final residual = 0.00011581, No Iterations 5
DILUPBiCGStab:  Solving for Uz, Initial residual = 0.134075, Final residual = 0.000406209, No Iterations 5
linear solve U 5629411
[OGL LOG][Proc: 0]global_index_init: 0.168 [ms]
[OGL LOG][Proc: 0]p_local_coeffs: call_update: 0 [ms]
[OGL LOG][Proc: 0]p_non_local_coeffs: call_update: 0 [ms]
[OGL LOG][Proc: 0]update_local_matrix_data: 158.852 [ms]
[OGL LOG][Proc: 0]update_non_local_matrix_data: 1.014 [ms]
[OGL LOG][Proc: 0]p_matrix: call_update: 71.17 [ms]
[OGL LOG][Proc: 0]p_rhs: call_update: 27.786 [ms]
[OGL LOG][Proc: 0]init_precond: 0.032 [ms]
[OGL LOG][StoppingCriterion.H:588] Creating stopping criterion with minIter 1878 frequency 10
[OGL LOG][Proc: 0]generate_solver: 0.002 [ms]
[OGL LOG][Proc: 0]solve: 40095.5 [ms]
[OGL LOG][Proc: 0]copy_x_back: 26.393 [ms]
[OGL LOG][lduLduBase.H:303] 
Statistics:
	Time per iteration: 12929 [mu s]
	Time per residual norm calculation: 5076.000000 [mu s]
	Time per iteration and DOF: 0.202016 [ns]
	Retrieve results bandwith 0.484000 [GByte/s]
nonecudaGKOCG:  Solving for p, Initial residual = 0.328315, Final residual = 8.99575e-05, No Iterations 3101
linear solve p 40415965
time step continuity errors : sum local = 1.9612e-10, global = -5.92681e-23, cumulative = -1.98584e-23
[OGL LOG][Proc: 0]global_index_init: 0.568 [ms]
[OGL LOG][Proc: 0]p_local_coeffs: call_update: 0 [ms]
[OGL LOG][Proc: 0]p_non_local_coeffs: call_update: 0 [ms]
[OGL LOG][Proc: 0]update_local_matrix_data: 154.674 [ms]
[OGL LOG][Proc: 0]update_non_local_matrix_data: 1.003 [ms]
[OGL LOG][Proc: 0]p_matrix: call_update: 68.915 [ms]
[OGL LOG][Proc: 0]p_rhs: call_update: 29.479 [ms]
[OGL LOG][Proc: 0]init_precond: 0.03 [ms]
[OGL LOG][StoppingCriterion.H:588] Creating stopping criterion with minIter 1860 frequency 10
[OGL LOG][Proc: 0]generate_solver: 0.001 [ms]
[OGL LOG][Proc: 0]solve: 40098.3 [ms]
[OGL LOG][Proc: 0]copy_x_back: 29.526 [ms]
[OGL LOG][lduLduBase.H:303] 
Statistics:
	Time per iteration: 12930 [mu s]
	Time per residual norm calculation: 5058.000000 [mu s]
	Time per iteration and DOF: 0.202031 [ns]
	Retrieve results bandwith 0.433000 [GByte/s]
nonecudaGKOCG:  Solving for p, Initial residual = 0.273584, Final residual = 8.33967e-05, No Iterations 3101
linear solve p 40415470
time step continuity errors : sum local = 1.83142e-10, global = -7.19369e-23, cumulative = -9.17954e-23
ExecutionTime = 378.51 s  ClockTime = 389 s

Time = 0.000125

Courant Number mean: 0.00255331 max: 0.0919041
DILUPBiCGStab:  Solving for Ux, Initial residual = 0.0332711, Final residual = 7.7024e-05, No Iterations 5
DILUPBiCGStab:  Solving for Uy, Initial residual = 0.0630105, Final residual = 7.07241e-05, No Iterations 5
DILUPBiCGStab:  Solving for Uz, Initial residual = 0.0890825, Final residual = 0.00026419, No Iterations 5
linear solve U 5620329
[OGL LOG][Proc: 0]global_index_init: 0.145 [ms]
[OGL LOG][Proc: 0]p_local_coeffs: call_update: 0 [ms]
[OGL LOG][Proc: 0]p_non_local_coeffs: call_update: 0 [ms]
[OGL LOG][Proc: 0]update_local_matrix_data: 158.661 [ms]
[OGL LOG][Proc: 0]update_non_local_matrix_data: 0.997 [ms]
[OGL LOG][Proc: 0]p_matrix: call_update: 66.57 [ms]
[OGL LOG][Proc: 0]p_rhs: call_update: 36.201 [ms]
[OGL LOG][Proc: 0]init_precond: 0.033 [ms]
[OGL LOG][StoppingCriterion.H:588] Creating stopping criterion with minIter 1860 frequency 10
[OGL LOG][Proc: 0]generate_solver: 0.002 [ms]
[OGL LOG][Proc: 0]solve: 38784.1 [ms]
[OGL LOG][Proc: 0]copy_x_back: 27.15 [ms]
[OGL LOG][lduLduBase.H:303] 
Statistics:
	Time per iteration: 12923 [mu s]
	Time per residual norm calculation: 5056.000000 [mu s]
	Time per iteration and DOF: 0.201922 [ns]
	Retrieve results bandwith 0.471000 [GByte/s]
nonecudaGKOCG:  Solving for p, Initial residual = 0.220806, Final residual = 8.88945e-05, No Iterations 3001
linear solve p 39108881
time step continuity errors : sum local = 1.71129e-10, global = 7.97399e-23, cumulative = -1.20555e-23
[OGL LOG][Proc: 0]global_index_init: 0.272 [ms]
[OGL LOG][Proc: 0]p_local_coeffs: call_update: 0 [ms]
[OGL LOG][Proc: 0]p_non_local_coeffs: call_update: 0 [ms]
[OGL LOG][Proc: 0]update_local_matrix_data: 152.359 [ms]
[OGL LOG][Proc: 0]update_non_local_matrix_data: 0.986 [ms]
[OGL LOG][Proc: 0]p_matrix: call_update: 74.651 [ms]
[OGL LOG][Proc: 0]p_rhs: call_update: 24.782 [ms]
[OGL LOG][Proc: 0]init_precond: 0.028 [ms]
[OGL LOG][StoppingCriterion.H:588] Creating stopping criterion with minIter 1800 frequency 10
[OGL LOG][Proc: 0]generate_solver: 0.002 [ms]
[OGL LOG][Proc: 0]solve: 38812.6 [ms]
[OGL LOG][Proc: 0]copy_x_back: 29.55 [ms]
[OGL LOG][lduLduBase.H:303] 
Statistics:
	Time per iteration: 12933 [mu s]
	Time per residual norm calculation: 5066.000000 [mu s]
	Time per iteration and DOF: 0.202078 [ns]
	Retrieve results bandwith 0.433000 [GByte/s]
nonecudaGKOCG:  Solving for p, Initial residual = 0.18646, Final residual = 8.07363e-05, No Iterations 3001
linear solve p 39129820
time step continuity errors : sum local = 1.54736e-10, global = 1.30911e-23, cumulative = 1.03563e-24
ExecutionTime = 466.63 s  ClockTime = 477 s

Time = 0.00015

Courant Number mean: 0.00284851 max: 0.0928883
DILUPBiCGStab:  Solving for Ux, Initial residual = 0.0270566, Final residual = 5.33036e-05, No Iterations 5
DILUPBiCGStab:  Solving for Uy, Initial residual = 0.0495067, Final residual = 3.66328e-05, No Iterations 5
DILUPBiCGStab:  Solving for Uz, Initial residual = 0.0776232, Final residual = 0.000163535, No Iterations 5
linear solve U 5625739
[OGL LOG][Proc: 0]global_index_init: 0.047 [ms]
[OGL LOG][Proc: 0]p_local_coeffs: call_update: 0 [ms]
[OGL LOG][Proc: 0]p_non_local_coeffs: call_update: 0 [ms]
[OGL LOG][Proc: 0]update_local_matrix_data: 158.525 [ms]
[OGL LOG][Proc: 0]update_non_local_matrix_data: 1.548 [ms]
[OGL LOG][Proc: 0]p_matrix: call_update: 77.3 [ms]
[OGL LOG][Proc: 0]p_rhs: call_update: 23.328 [ms]
[OGL LOG][Proc: 0]init_precond: 0.033 [ms]
[OGL LOG][StoppingCriterion.H:588] Creating stopping criterion with minIter 1800 frequency 10
[OGL LOG][Proc: 0]generate_solver: 0.001 [ms]
[OGL LOG][Proc: 0]solve: 22980.1 [ms]
[OGL LOG][Proc: 0]copy_x_back: 27.38 [ms]
[OGL LOG][lduLduBase.H:303] 
Statistics:
	Time per iteration: 12759 [mu s]
	Time per residual norm calculation: 5225.000000 [mu s]
	Time per iteration and DOF: 0.199359 [ns]
	Retrieve results bandwith 0.467000 [GByte/s]
nonecudaGKOCG:  Solving for p, Initial residual = 0.133551, Final residual = 9.74107e-05, No Iterations 1801
linear solve p 23301536
time step continuity errors : sum local = 1.8778e-10, global = -7.7313e-23, cumulative = -7.62773e-23
[OGL LOG][Proc: 0]global_index_init: 0.235 [ms]
[OGL LOG][Proc: 0]p_local_coeffs: call_update: 0 [ms]
[OGL LOG][Proc: 0]p_non_local_coeffs: call_update: 0 [ms]
[OGL LOG][Proc: 0]update_local_matrix_data: 153.432 [ms]
[OGL LOG][Proc: 0]update_non_local_matrix_data: 0.879 [ms]
[OGL LOG][Proc: 0]p_matrix: call_update: 73.967 [ms]
[OGL LOG][Proc: 0]p_rhs: call_update: 28.83 [ms]
[OGL LOG][Proc: 0]init_precond: 0.033 [ms]
[OGL LOG][StoppingCriterion.H:588] Creating stopping criterion with minIter 1080 frequency 10
[OGL LOG][Proc: 0]generate_solver: 0.001 [ms]
[OGL LOG][Proc: 0]solve: 17649.3 [ms]
[OGL LOG][Proc: 0]copy_x_back: 28.98 [ms]
[OGL LOG][lduLduBase.H:303] 
Statistics:
	Time per iteration: 12873 [mu s]
	Time per residual norm calculation: 5069.000000 [mu s]
	Time per iteration and DOF: 0.201141 [ns]
	Retrieve results bandwith 0.441000 [GByte/s]
nonecudaGKOCG:  Solving for p, Initial residual = 0.110973, Final residual = 9.88326e-05, No Iterations 1371
linear solve p 17969064
time step continuity errors : sum local = 1.86231e-10, global = -6.56762e-23, cumulative = -1.41954e-22
ExecutionTime = 517.9 s  ClockTime = 529 s

Time = 0.000175

Courant Number mean: 0.00310896 max: 0.0935749
DILUPBiCGStab:  Solving for Ux, Initial residual = 0.0228943, Final residual = 3.93039e-05, No Iterations 5
DILUPBiCGStab:  Solving for Uy, Initial residual = 0.0407664, Final residual = 3.30333e-05, No Iterations 5
DILUPBiCGStab:  Solving for Uz, Initial residual = 0.0671963, Final residual = 0.000110622, No Iterations 5
linear solve U 5649824
[OGL LOG][Proc: 0]global_index_init: 0.109 [ms]
[OGL LOG][Proc: 0]p_local_coeffs: call_update: 0 [ms]
[OGL LOG][Proc: 0]p_non_local_coeffs: call_update: 0 [ms]
[OGL LOG][Proc: 0]update_local_matrix_data: 158.17 [ms]
[OGL LOG][Proc: 0]update_non_local_matrix_data: 0.585 [ms]
[OGL LOG][Proc: 0]p_matrix: call_update: 73.93 [ms]
[OGL LOG][Proc: 0]p_rhs: call_update: 26.373 [ms]
[OGL LOG][Proc: 0]init_precond: 0.028 [ms]
[OGL LOG][StoppingCriterion.H:588] Creating stopping criterion with minIter 822 frequency 10
[OGL LOG][Proc: 0]generate_solver: 0.002 [ms]
[OGL LOG][Proc: 0]solve: 17366.9 [ms]
[OGL LOG][Proc: 0]copy_x_back: 27.353 [ms]
[OGL LOG][lduLduBase.H:303] 
Statistics:
	Time per iteration: 12950 [mu s]
	Time per residual norm calculation: 4769.000000 [mu s]
	Time per iteration and DOF: 0.202344 [ns]
	Retrieve results bandwith 0.467000 [GByte/s]
nonecudaGKOCG:  Solving for p, Initial residual = 0.0920489, Final residual = 9.95508e-05, No Iterations 1341
linear solve p 17687072
time step continuity errors : sum local = 1.79674e-10, global = -2.70499e-23, cumulative = -1.69003e-22
[OGL LOG][Proc: 0]global_index_init: 0.053 [ms]
[OGL LOG][Proc: 0]p_local_coeffs: call_update: 0 [ms]
[OGL LOG][Proc: 0]p_non_local_coeffs: call_update: 0 [ms]
[OGL LOG][Proc: 0]update_local_matrix_data: 153.279 [ms]
[OGL LOG][Proc: 0]update_non_local_matrix_data: 1.1 [ms]
[OGL LOG][Proc: 0]p_matrix: call_update: 74.358 [ms]
[OGL LOG][Proc: 0]p_rhs: call_update: 25.649 [ms]
[OGL LOG][Proc: 0]init_precond: 0.033 [ms]
[OGL LOG][StoppingCriterion.H:588] Creating stopping criterion with minIter 804 frequency 10
[OGL LOG][Proc: 0]generate_solver: 0.002 [ms]
[OGL LOG][Proc: 0]solve: 17117.6 [ms]
[OGL LOG][Proc: 0]copy_x_back: 28.824 [ms]
[OGL LOG][lduLduBase.H:303] 
Statistics:
	Time per iteration: 12958 [mu s]
	Time per residual norm calculation: 5069.000000 [mu s]
	Time per iteration and DOF: 0.202469 [ns]
	Retrieve results bandwith 0.444000 [GByte/s]
nonecudaGKOCG:  Solving for p, Initial residual = 0.077281, Final residual = 9.96769e-05, No Iterations 1321
linear solve p 17435518
time step continuity errors : sum local = 1.79933e-10, global = 3.32129e-23, cumulative = -1.35791e-22
ExecutionTime = 563.01 s  ClockTime = 574 s

Time = 0.0002

Courant Number mean: 0.00334349 max: 0.094089
DILUPBiCGStab:  Solving for Ux, Initial residual = 0.0198986, Final residual = 3.0085e-05, No Iterations 5
DILUPBiCGStab:  Solving for Uy, Initial residual = 0.0346209, Final residual = 2.46884e-05, No Iterations 5
DILUPBiCGStab:  Solving for Uz, Initial residual = 0.0593943, Final residual = 7.80216e-05, No Iterations 5
linear solve U 5634923
[OGL LOG][Proc: 0]global_index_init: 0.22 [ms]
[OGL LOG][Proc: 0]p_local_coeffs: call_update: 0 [ms]
[OGL LOG][Proc: 0]p_non_local_coeffs: call_update: 0 [ms]
[OGL LOG][Proc: 0]update_local_matrix_data: 156.391 [ms]
[OGL LOG][Proc: 0]update_non_local_matrix_data: 2.54 [ms]
[OGL LOG][Proc: 0]p_matrix: call_update: 40.925 [ms]
[OGL LOG][Proc: 0]p_rhs: call_update: 59.547 [ms]
[OGL LOG][Proc: 0]init_precond: 0.027 [ms]
[OGL LOG][StoppingCriterion.H:588] Creating stopping criterion with minIter 792 frequency 10
[OGL LOG][Proc: 0]generate_solver: 0.001 [ms]
[OGL LOG][Proc: 0]solve: 17129.2 [ms]
[OGL LOG][Proc: 0]copy_x_back: 27.223 [ms]
[OGL LOG][lduLduBase.H:303] 
Statistics:
	Time per iteration: 12966 [mu s]
	Time per residual norm calculation: 5072.000000 [mu s]
	Time per iteration and DOF: 0.202594 [ns]
	Retrieve results bandwith 0.470000 [GByte/s]
nonecudaGKOCG:  Solving for p, Initial residual = 0.0599911, Final residual = 9.69105e-05, No Iterations 1321
linear solve p 17449690
time step continuity errors : sum local = 1.79069e-10, global = -1.80907e-23, cumulative = -1.53881e-22
[OGL LOG][Proc: 0]global_index_init: 0.319 [ms]
[OGL LOG][Proc: 0]p_local_coeffs: call_update: 0 [ms]
[OGL LOG][Proc: 0]p_non_local_coeffs: call_update: 0 [ms]
[OGL LOG][Proc: 0]update_local_matrix_data: 152.923 [ms]
[OGL LOG][Proc: 0]update_non_local_matrix_data: 0.856 [ms]
[OGL LOG][Proc: 0]p_matrix: call_update: 74.375 [ms]
[OGL LOG][Proc: 0]p_rhs: call_update: 26.393 [ms]
[OGL LOG][Proc: 0]init_precond: 0.031 [ms]
[OGL LOG][StoppingCriterion.H:588] Creating stopping criterion with minIter 792 frequency 10
[OGL LOG][Proc: 0]generate_solver: 0.002 [ms]
[OGL LOG][Proc: 0]solve: 16850 [ms]
[OGL LOG][Proc: 0]copy_x_back: 28.715 [ms]
[OGL LOG][lduLduBase.H:303] 
Statistics:
	Time per iteration: 12951 [mu s]
	Time per residual norm calculation: 5811.000000 [mu s]
	Time per iteration and DOF: 0.202359 [ns]
	Retrieve results bandwith 0.445000 [GByte/s]
nonecudaGKOCG:  Solving for p, Initial residual = 0.0517077, Final residual = 9.6797e-05, No Iterations 1301
linear solve p 17166689
time step continuity errors : sum local = 1.74711e-10, global = -2.47169e-23, cumulative = -1.78598e-22
ExecutionTime = 607.66 s  ClockTime = 619 s

Time = 0.000225

Courant Number mean: 0.00355782 max: 0.0944927
DILUPBiCGStab:  Solving for Ux, Initial residual = 0.0176161, Final residual = 2.35922e-05, No Iterations 5
DILUPBiCGStab:  Solving for Uy, Initial residual = 0.0300979, Final residual = 2.23897e-05, No Iterations 5
DILUPBiCGStab:  Solving for Uz, Initial residual = 0.0527891, Final residual = 5.95781e-05, No Iterations 5
linear solve U 5644986
[OGL LOG][Proc: 0]global_index_init: 0.294 [ms]
[OGL LOG][Proc: 0]p_local_coeffs: call_update: 0 [ms]
[OGL LOG][Proc: 0]p_non_local_coeffs: call_update: 0 [ms]
[OGL LOG][Proc: 0]update_local_matrix_data: 157.188 [ms]
[OGL LOG][Proc: 0]update_non_local_matrix_data: 0.705 [ms]
[OGL LOG][Proc: 0]p_matrix: call_update: 70.557 [ms]
[OGL LOG][Proc: 0]p_rhs: call_update: 29.488 [ms]
[OGL LOG][Proc: 0]init_precond: 0.03 [ms]
[OGL LOG][StoppingCriterion.H:588] Creating stopping criterion with minIter 780 frequency 10
[OGL LOG][Proc: 0]generate_solver: 0.001 [ms]
[OGL LOG][Proc: 0]solve: 17666.1 [ms]
[OGL LOG][Proc: 0]copy_x_back: 27.707 [ms]
[OGL LOG][lduLduBase.H:303] 
Statistics:
	Time per iteration: 12980 [mu s]
	Time per residual norm calculation: 5063.000000 [mu s]
	Time per iteration and DOF: 0.202813 [ns]
	Retrieve results bandwith 0.461000 [GByte/s]
nonecudaGKOCG:  Solving for p, Initial residual = 0.044621, Final residual = 9.72831e-05, No Iterations 1361
linear solve p 17986127
time step continuity errors : sum local = 1.73241e-10, global = -4.3701e-23, cumulative = -2.22299e-22
[OGL LOG][Proc: 0]global_index_init: 0.503 [ms]
[OGL LOG][Proc: 0]p_local_coeffs: call_update: 0 [ms]
[OGL LOG][Proc: 0]p_non_local_coeffs: call_update: 0 [ms]
[OGL LOG][Proc: 0]update_local_matrix_data: 153.18 [ms]
[OGL LOG][Proc: 0]update_non_local_matrix_data: 1 [ms]
[OGL LOG][Proc: 0]p_matrix: call_update: 73.244 [ms]
[OGL LOG][Proc: 0]p_rhs: call_update: 27.876 [ms]
[OGL LOG][Proc: 0]init_precond: 0.029 [ms]
[OGL LOG][StoppingCriterion.H:588] Creating stopping criterion with minIter 816 frequency 10
[OGL LOG][Proc: 0]generate_solver: 0.002 [ms]
[OGL LOG][Proc: 0]solve: 17502 [ms]
[OGL LOG][Proc: 0]copy_x_back: 29.203 [ms]
[OGL LOG][lduLduBase.H:303] 
Statistics:
	Time per iteration: 12954 [mu s]
	Time per residual norm calculation: 4779.000000 [mu s]
	Time per iteration and DOF: 0.202406 [ns]
	Retrieve results bandwith 0.438000 [GByte/s]
nonecudaGKOCG:  Solving for p, Initial residual = 0.0388158, Final residual = 9.68825e-05, No Iterations 1351
linear solve p 17820271
time step continuity errors : sum local = 1.70859e-10, global = -6.51474e-23, cumulative = -2.87447e-22
ExecutionTime = 653.47 s  ClockTime = 665 s

Time = 0.00025

Courant Number mean: 0.00375591 max: 0.0948204
DILUPBiCGStab:  Solving for Ux, Initial residual = 0.0158261, Final residual = 1.90364e-05, No Iterations 5
DILUPBiCGStab:  Solving for Uy, Initial residual = 0.0265923, Final residual = 1.84424e-05, No Iterations 5
DILUPBiCGStab:  Solving for Uz, Initial residual = 0.0480991, Final residual = 4.60648e-05, No Iterations 5
linear solve U 5644607
[OGL LOG][Proc: 0]global_index_init: 0.098 [ms]
[OGL LOG][Proc: 0]p_local_coeffs: call_update: 0 [ms]
[OGL LOG][Proc: 0]p_non_local_coeffs: call_update: 0 [ms]
[OGL LOG][Proc: 0]update_local_matrix_data: 157.959 [ms]
[OGL LOG][Proc: 0]update_non_local_matrix_data: 0.761 [ms]
[OGL LOG][Proc: 0]p_matrix: call_update: 73.437 [ms]
[OGL LOG][Proc: 0]p_rhs: call_update: 24.24 [ms]
[OGL LOG][Proc: 0]init_precond: 0.028 [ms]
[OGL LOG][StoppingCriterion.H:588] Creating stopping criterion with minIter 810 frequency 10
[OGL LOG][Proc: 0]generate_solver: 0.002 [ms]
[OGL LOG][Proc: 0]solve: 17651.9 [ms]
[OGL LOG][Proc: 0]copy_x_back: 26.777 [ms]
[OGL LOG][lduLduBase.H:303] 
Statistics:
	Time per iteration: 12969 [mu s]
	Time per residual norm calculation: 5063.000000 [mu s]
	Time per iteration and DOF: 0.202641 [ns]
	Retrieve results bandwith 0.478000 [GByte/s]
nonecudaGKOCG:  Solving for p, Initial residual = 0.0328738, Final residual = 9.63802e-05, No Iterations 1361
linear solve p 17969353
time step continuity errors : sum local = 1.76938e-10, global = -2.58361e-23, cumulative = -3.13283e-22
[OGL LOG][Proc: 0]global_index_init: 0.248 [ms]
[OGL LOG][Proc: 0]p_local_coeffs: call_update: 0 [ms]
[OGL LOG][Proc: 0]p_non_local_coeffs: call_update: 0 [ms]
[OGL LOG][Proc: 0]update_local_matrix_data: 152.649 [ms]
[OGL LOG][Proc: 0]update_non_local_matrix_data: 1.909 [ms]
[OGL LOG][Proc: 0]p_matrix: call_update: 72.617 [ms]
[OGL LOG][Proc: 0]p_rhs: call_update: 26.121 [ms]
[OGL LOG][Proc: 0]init_precond: 0.029 [ms]
[OGL LOG][StoppingCriterion.H:588] Creating stopping criterion with minIter 816 frequency 10
[OGL LOG][Proc: 0]generate_solver: 0.001 [ms]
[OGL LOG][Proc: 0]solve: 16575.1 [ms]
[OGL LOG][Proc: 0]copy_x_back: 29.211 [ms]
[OGL LOG][lduLduBase.H:303] 
Statistics:
	Time per iteration: 12939 [mu s]
	Time per residual norm calculation: 5085.000000 [mu s]
	Time per iteration and DOF: 0.202172 [ns]
	Retrieve results bandwith 0.438000 [GByte/s]
nonecudaGKOCG:  Solving for p, Initial residual = 0.0294149, Final residual = 9.60641e-05, No Iterations 1281
linear solve p 16890478
time step continuity errors : sum local = 1.71716e-10, global = 1.45626e-23, cumulative = -2.9872e-22
ExecutionTime = 698.37 s  ClockTime = 710 s

Time = 0.000275

Courant Number mean: 0.00394042 max: 0.0950934
DILUPBiCGStab:  Solving for Ux, Initial residual = 0.0143696, Final residual = 1.57246e-05, No Iterations 5
DILUPBiCGStab:  Solving for Uy, Initial residual = 0.0238312, Final residual = 1.6582e-05, No Iterations 5
DILUPBiCGStab:  Solving for Uz, Initial residual = 0.0436778, Final residual = 4.02706e-05, No Iterations 5
linear solve U 5632709
[OGL LOG][Proc: 0]global_index_init: 0.091 [ms]
[OGL LOG][Proc: 0]p_local_coeffs: call_update: 0 [ms]
[OGL LOG][Proc: 0]p_non_local_coeffs: call_update: 0 [ms]
[OGL LOG][Proc: 0]update_local_matrix_data: 159.382 [ms]
[OGL LOG][Proc: 0]update_non_local_matrix_data: 0.512 [ms]
[OGL LOG][Proc: 0]p_matrix: call_update: 71.087 [ms]
[OGL LOG][Proc: 0]p_rhs: call_update: 25.263 [ms]
[OGL LOG][Proc: 0]init_precond: 0.031 [ms]
[OGL LOG][StoppingCriterion.H:588] Creating stopping criterion with minIter 768 frequency 10
[OGL LOG][Proc: 0]generate_solver: 0.002 [ms]
[OGL LOG][Proc: 0]solve: 17794.7 [ms]
[OGL LOG][Proc: 0]copy_x_back: 25.429 [ms]
[OGL LOG][lduLduBase.H:303] 
Statistics:
	Time per iteration: 12979 [mu s]
	Time per residual norm calculation: 4474.000000 [mu s]
	Time per iteration and DOF: 0.202797 [ns]
	Retrieve results bandwith 0.503000 [GByte/s]
nonecudaGKOCG:  Solving for p, Initial residual = 0.0265216, Final residual = 9.0171e-05, No Iterations 1371
linear solve p 18112717
time step continuity errors : sum local = 1.61431e-10, global = -4.3354e-23, cumulative = -3.42074e-22
[OGL LOG][Proc: 0]global_index_init: 0.51 [ms]
[OGL LOG][Proc: 0]p_local_coeffs: call_update: 0 [ms]
[OGL LOG][Proc: 0]p_non_local_coeffs: call_update: 0 [ms]
[OGL LOG][Proc: 0]update_local_matrix_data: 154.052 [ms]
[OGL LOG][Proc: 0]update_non_local_matrix_data: 0.607 [ms]
[OGL LOG][Proc: 0]p_matrix: call_update: 72.808 [ms]
[OGL LOG][Proc: 0]p_rhs: call_update: 25.815 [ms]
[OGL LOG][Proc: 0]init_precond: 0.03 [ms]
[OGL LOG][StoppingCriterion.H:588] Creating stopping criterion with minIter 822 frequency 10
[OGL LOG][Proc: 0]generate_solver: 0.002 [ms]
[OGL LOG][Proc: 0]solve: 17507.2 [ms]
[OGL LOG][Proc: 0]copy_x_back: 29.389 [ms]
[OGL LOG][lduLduBase.H:303] 
Statistics:
	Time per iteration: 12958 [mu s]
	Time per residual norm calculation: 5076.000000 [mu s]
	Time per iteration and DOF: 0.202469 [ns]
	Retrieve results bandwith 0.435000 [GByte/s]
nonecudaGKOCG:  Solving for p, Initial residual = 0.0241298, Final residual = 9.97839e-05, No Iterations 1351
linear solve p 17824025
time step continuity errors : sum local = 1.74813e-10, global = -5.08417e-23, cumulative = -3.92916e-22
ExecutionTime = 744.3 s  ClockTime = 756 s

Time = 0.0003

Courant Number mean: 0.00411344 max: 0.0953253
DILUPBiCGStab:  Solving for Ux, Initial residual = 0.0131718, Final residual = 1.32932e-05, No Iterations 5
DILUPBiCGStab:  Solving for Uy, Initial residual = 0.0215655, Final residual = 1.44121e-05, No Iterations 5
DILUPBiCGStab:  Solving for Uz, Initial residual = 0.0403612, Final residual = 3.38846e-05, No Iterations 5
linear solve U 5644554
[OGL LOG][Proc: 0]global_index_init: 0.209 [ms]
[OGL LOG][Proc: 0]p_local_coeffs: call_update: 0 [ms]
[OGL LOG][Proc: 0]p_non_local_coeffs: call_update: 0 [ms]
[OGL LOG][Proc: 0]update_local_matrix_data: 157.264 [ms]
[OGL LOG][Proc: 0]update_non_local_matrix_data: 0.927 [ms]
[OGL LOG][Proc: 0]p_matrix: call_update: 72.632 [ms]
[OGL LOG][Proc: 0]p_rhs: call_update: 28.487 [ms]
[OGL LOG][Proc: 0]init_precond: 0.039 [ms]
[OGL LOG][StoppingCriterion.H:588] Creating stopping criterion with minIter 810 frequency 10
[OGL LOG][Proc: 0]generate_solver: 0.002 [ms]
[OGL LOG][Proc: 0]solve: 17514.2 [ms]
[OGL LOG][Proc: 0]copy_x_back: 26.491 [ms]
[OGL LOG][lduLduBase.H:303] 
Statistics:
	Time per iteration: 12963 [mu s]
	Time per residual norm calculation: 4619.000000 [mu s]
	Time per iteration and DOF: 0.202547 [ns]
	Retrieve results bandwith 0.483000 [GByte/s]
nonecudaGKOCG:  Solving for p, Initial residual = 0.0213762, Final residual = 9.95416e-05, No Iterations 1351
linear solve p 17834832
time step continuity errors : sum local = 1.83723e-10, global = 1.26636e-23, cumulative = -3.80252e-22
[OGL LOG][Proc: 0]global_index_init: 0.307 [ms]
[OGL LOG][Proc: 0]p_local_coeffs: call_update: 0 [ms]
[OGL LOG][Proc: 0]p_non_local_coeffs: call_update: 0 [ms]
[OGL LOG][Proc: 0]update_local_matrix_data: 150.615 [ms]
[OGL LOG][Proc: 0]update_non_local_matrix_data: 1.155 [ms]
[OGL LOG][Proc: 0]p_matrix: call_update: 40.576 [ms]
[OGL LOG][Proc: 0]p_rhs: call_update: 61.424 [ms]
[OGL LOG][Proc: 0]init_precond: 0.032 [ms]
[OGL LOG][StoppingCriterion.H:588] Creating stopping criterion with minIter 810 frequency 10
[OGL LOG][Proc: 0]generate_solver: 0.002 [ms]
[OGL LOG][Proc: 0]solve: 15933.6 [ms]
[OGL LOG][Proc: 0]copy_x_back: 28.456 [ms]
[OGL LOG][lduLduBase.H:303] 
Statistics:
	Time per iteration: 12943 [mu s]
	Time per residual norm calculation: 4484.000000 [mu s]
	Time per iteration and DOF: 0.202234 [ns]
	Retrieve results bandwith 0.449000 [GByte/s]
nonecudaGKOCG:  Solving for p, Initial residual = 0.0199007, Final residual = 9.77655e-05, No Iterations 1231
linear solve p 16249498
time step continuity errors : sum local = 1.7485e-10, global = -1.09873e-22, cumulative = -4.90125e-22
ExecutionTime = 788.42 s  ClockTime = 801 s

Time = 0.000325

Courant Number mean: 0.0042767 max: 0.0955255
DILUPBiCGStab:  Solving for Ux, Initial residual = 0.0121553, Final residual = 1.14645e-05, No Iterations 5
DILUPBiCGStab:  Solving for Uy, Initial residual = 0.0197067, Final residual = 1.308e-05, No Iterations 5
DILUPBiCGStab:  Solving for Uz, Initial residual = 0.0371684, Final residual = 3.32509e-05, No Iterations 5
linear solve U 5654813
[OGL LOG][Proc: 0]global_index_init: 4.551 [ms]
[OGL LOG][Proc: 0]p_local_coeffs: call_update: 0 [ms]
[OGL LOG][Proc: 0]p_non_local_coeffs: call_update: 0 [ms]
[OGL LOG][Proc: 0]update_local_matrix_data: 159.689 [ms]
[OGL LOG][Proc: 0]update_non_local_matrix_data: 1.064 [ms]
[OGL LOG][Proc: 0]p_matrix: call_update: 70.862 [ms]
[OGL LOG][Proc: 0]p_rhs: call_update: 25.051 [ms]
[OGL LOG][Proc: 0]init_precond: 0.035 [ms]
[OGL LOG][StoppingCriterion.H:588] Creating stopping criterion with minIter 738 frequency 10
[OGL LOG][Proc: 0]generate_solver: 0.002 [ms]
[OGL LOG][Proc: 0]solve: 17676.3 [ms]
[OGL LOG][Proc: 0]copy_x_back: 27.104 [ms]
[OGL LOG][lduLduBase.H:303] 
Statistics:
	Time per iteration: 12987 [mu s]
	Time per residual norm calculation: 4896.000000 [mu s]
	Time per iteration and DOF: 0.202922 [ns]
	Retrieve results bandwith 0.472000 [GByte/s]
nonecudaGKOCG:  Solving for p, Initial residual = 0.0187226, Final residual = 9.10036e-05, No Iterations 1361
linear solve p 18000713
time step continuity errors : sum local = 1.64883e-10, global = -9.08529e-23, cumulative = -5.80978e-22
[OGL LOG][Proc: 0]global_index_init: 0.077 [ms]
[OGL LOG][Proc: 0]p_local_coeffs: call_update: 0 [ms]
[OGL LOG][Proc: 0]p_non_local_coeffs: call_update: 0 [ms]
[OGL LOG][Proc: 0]update_local_matrix_data: 152.41 [ms]
[OGL LOG][Proc: 0]update_non_local_matrix_data: 0.798 [ms]
[OGL LOG][Proc: 0]p_matrix: call_update: 73.144 [ms]
[OGL LOG][Proc: 0]p_rhs: call_update: 24.624 [ms]
[OGL LOG][Proc: 0]init_precond: 0.036 [ms]
[OGL LOG][StoppingCriterion.H:588] Creating stopping criterion with minIter 816 frequency 10
[OGL LOG][Proc: 0]generate_solver: 0.002 [ms]
[OGL LOG][Proc: 0]solve: 17378.4 [ms]
[OGL LOG][Proc: 0]copy_x_back: 29.115 [ms]
[OGL LOG][lduLduBase.H:303] 
Statistics:
	Time per iteration: 12959 [mu s]
	Time per residual norm calculation: 4773.000000 [mu s]
	Time per iteration and DOF: 0.202484 [ns]
	Retrieve results bandwith 0.439000 [GByte/s]
nonecudaGKOCG:  Solving for p, Initial residual = 0.0175345, Final residual = 9.33858e-05, No Iterations 1341
linear solve p 17692271
time step continuity errors : sum local = 1.6384e-10, global = -1.50785e-22, cumulative = -7.31763e-22
ExecutionTime = 834.13 s  ClockTime = 846 s

Time = 0.00035

Courant Number mean: 0.00443139 max: 0.0957006
DILUPBiCGStab:  Solving for Ux, Initial residual = 0.0112949, Final residual = 1.00757e-05, No Iterations 5
DILUPBiCGStab:  Solving for Uy, Initial residual = 0.0181204, Final residual = 1.17717e-05, No Iterations 5
DILUPBiCGStab:  Solving for Uz, Initial residual = 0.0348224, Final residual = 3.05604e-05, No Iterations 5
linear solve U 5643011
[OGL LOG][Proc: 0]global_index_init: 0.093 [ms]
[OGL LOG][Proc: 0]p_local_coeffs: call_update: 0 [ms]
[OGL LOG][Proc: 0]p_non_local_coeffs: call_update: 0 [ms]
[OGL LOG][Proc: 0]update_local_matrix_data: 159.222 [ms]
[OGL LOG][Proc: 0]update_non_local_matrix_data: 1.034 [ms]
[OGL LOG][Proc: 0]p_matrix: call_update: 68.973 [ms]
[OGL LOG][Proc: 0]p_rhs: call_update: 31.602 [ms]
[OGL LOG][Proc: 0]init_precond: 0.034 [ms]
[OGL LOG][StoppingCriterion.H:588] Creating stopping criterion with minIter 804 frequency 10
[OGL LOG][Proc: 0]generate_solver: 0.001 [ms]
[OGL LOG][Proc: 0]solve: 17772.2 [ms]
[OGL LOG][Proc: 0]copy_x_back: 26.735 [ms]
[OGL LOG][lduLduBase.H:303] 
Statistics:
	Time per iteration: 12962 [mu s]
	Time per residual norm calculation: 4184.000000 [mu s]
	Time per iteration and DOF: 0.202531 [ns]
	Retrieve results bandwith 0.478000 [GByte/s]
nonecudaGKOCG:  Solving for p, Initial residual = 0.0162868, Final residual = 9.37372e-05, No Iterations 1371
linear solve p 18094463
time step continuity errors : sum local = 1.75993e-10, global = 6.4756e-23, cumulative = -6.67007e-22
[OGL LOG][Proc: 0]global_index_init: 0.386 [ms]
[OGL LOG][Proc: 0]p_local_coeffs: call_update: 0 [ms]
[OGL LOG][Proc: 0]p_non_local_coeffs: call_update: 0 [ms]
[OGL LOG][Proc: 0]update_local_matrix_data: 151.854 [ms]
[OGL LOG][Proc: 0]update_non_local_matrix_data: 0.692 [ms]
[OGL LOG][Proc: 0]p_matrix: call_update: 73.952 [ms]
[OGL LOG][Proc: 0]p_rhs: call_update: 27.179 [ms]
[OGL LOG][Proc: 0]init_precond: 0.028 [ms]
[OGL LOG][StoppingCriterion.H:588] Creating stopping criterion with minIter 822 frequency 10
[OGL LOG][Proc: 0]generate_solver: 0.002 [ms]
[OGL LOG][Proc: 0]solve: 15782.7 [ms]
[OGL LOG][Proc: 0]copy_x_back: 29.901 [ms]
[OGL LOG][lduLduBase.H:303] 
Statistics:
	Time per iteration: 12926 [mu s]
	Time per residual norm calculation: 5067.000000 [mu s]
	Time per iteration and DOF: 0.201969 [ns]
	Retrieve results bandwith 0.428000 [GByte/s]
nonecudaGKOCG:  Solving for p, Initial residual = 0.0154416, Final residual = 9.61452e-05, No Iterations 1221
linear solve p 16099724
time step continuity errors : sum local = 1.72783e-10, global = 8.58135e-24, cumulative = -6.58426e-22
ExecutionTime = 878.34 s  ClockTime = 891 s

Time = 0.000375

Courant Number mean: 0.00457848 max: 0.0958555
DILUPBiCGStab:  Solving for Ux, Initial residual = 0.0105416, Final residual = 8.99489e-06, No Iterations 5
DILUPBiCGStab:  Solving for Uy, Initial residual = 0.0167862, Final residual = 1.08078e-05, No Iterations 5
DILUPBiCGStab:  Solving for Uz, Initial residual = 0.0324494, Final residual = 3.17508e-05, No Iterations 5
linear solve U 5622983
[OGL LOG][Proc: 0]global_index_init: 0.202 [ms]
[OGL LOG][Proc: 0]p_local_coeffs: call_update: 0 [ms]
[OGL LOG][Proc: 0]p_non_local_coeffs: call_update: 0 [ms]
[OGL LOG][Proc: 0]update_local_matrix_data: 157.796 [ms]
[OGL LOG][Proc: 0]update_non_local_matrix_data: 0.931 [ms]
[OGL LOG][Proc: 0]p_matrix: call_update: 70.477 [ms]
[OGL LOG][Proc: 0]p_rhs: call_update: 28.998 [ms]
[OGL LOG][Proc: 0]init_precond: 0.031 [ms]
[OGL LOG][StoppingCriterion.H:588] Creating stopping criterion with minIter 732 frequency 10
[OGL LOG][Proc: 0]generate_solver: 0.002 [ms]
[OGL LOG][Proc: 0]solve: 17547.4 [ms]
[OGL LOG][Proc: 0]copy_x_back: 27.661 [ms]
[OGL LOG][lduLduBase.H:303] 
Statistics:
	Time per iteration: 12988 [mu s]
	Time per residual norm calculation: 5221.000000 [mu s]
	Time per iteration and DOF: 0.202937 [ns]
	Retrieve results bandwith 0.462000 [GByte/s]
nonecudaGKOCG:  Solving for p, Initial residual = 0.0146417, Final residual = 9.32789e-05, No Iterations 1351
linear solve p 17868760
time step continuity errors : sum local = 1.71819e-10, global = -4.14185e-23, cumulative = -6.99844e-22
[OGL LOG][Proc: 0]global_index_init: 0.212 [ms]
[OGL LOG][Proc: 0]p_local_coeffs: call_update: 0 [ms]
[OGL LOG][Proc: 0]p_non_local_coeffs: call_update: 0 [ms]
[OGL LOG][Proc: 0]update_local_matrix_data: 153.56 [ms]
[OGL LOG][Proc: 0]update_non_local_matrix_data: 0.699 [ms]
[OGL LOG][Proc: 0]p_matrix: call_update: 73.048 [ms]
[OGL LOG][Proc: 0]p_rhs: call_update: 25.181 [ms]
[OGL LOG][Proc: 0]init_precond: 0.029 [ms]
[OGL LOG][StoppingCriterion.H:588] Creating stopping criterion with minIter 810 frequency 10
[OGL LOG][Proc: 0]generate_solver: 0.001 [ms]
[OGL LOG][Proc: 0]solve: 16986.2 [ms]
[OGL LOG][Proc: 0]copy_x_back: 29.403 [ms]
[OGL LOG][lduLduBase.H:303] 
Statistics:
	Time per iteration: 12956 [mu s]
	Time per residual norm calculation: 5060.000000 [mu s]
	Time per iteration and DOF: 0.202437 [ns]
	Retrieve results bandwith 0.435000 [GByte/s]
nonecudaGKOCG:  Solving for p, Initial residual = 0.0139204, Final residual = 9.77543e-05, No Iterations 1311
linear solve p 17303825
time step continuity errors : sum local = 1.72219e-10, global = 2.37682e-23, cumulative = -6.76076e-22
ExecutionTime = 923.5 s  ClockTime = 936 s

Time = 0.0004

Courant Number mean: 0.00471897 max: 0.0959937
DILUPBiCGStab:  Solving for Ux, Initial residual = 0.00989289, Final residual = 8.14934e-06, No Iterations 5
DILUPBiCGStab:  Solving for Uy, Initial residual = 0.0156114, Final residual = 9.92639e-06, No Iterations 5
DILUPBiCGStab:  Solving for Uz, Initial residual = 0.0306977, Final residual = 3.11357e-05, No Iterations 5
linear solve U 5655330
[OGL LOG][Proc: 0]global_index_init: 0.086 [ms]
[OGL LOG][Proc: 0]p_local_coeffs: call_update: 0 [ms]
[OGL LOG][Proc: 0]p_non_local_coeffs: call_update: 0 [ms]
[OGL LOG][Proc: 0]update_local_matrix_data: 158.509 [ms]
[OGL LOG][Proc: 0]update_non_local_matrix_data: 0.876 [ms]
[OGL LOG][Proc: 0]p_matrix: call_update: 67.747 [ms]
[OGL LOG][Proc: 0]p_rhs: call_update: 30.033 [ms]
[OGL LOG][Proc: 0]init_precond: 0.03 [ms]
[OGL LOG][StoppingCriterion.H:588] Creating stopping criterion with minIter 786 frequency 10
[OGL LOG][Proc: 0]generate_solver: 0.002 [ms]
[OGL LOG][Proc: 0]solve: 17917.5 [ms]
[OGL LOG][Proc: 0]copy_x_back: 26.539 [ms]
[OGL LOG][lduLduBase.H:303] 
Statistics:
	Time per iteration: 12974 [mu s]
	Time per residual norm calculation: 4781.000000 [mu s]
	Time per iteration and DOF: 0.202719 [ns]
	Retrieve results bandwith 0.482000 [GByte/s]
nonecudaGKOCG:  Solving for p, Initial residual = 0.0133864, Final residual = 9.07271e-05, No Iterations 1381
linear solve p 18236256
time step continuity errors : sum local = 1.74186e-10, global = -3.1588e-23, cumulative = -7.07664e-22
[OGL LOG][Proc: 0]global_index_init: 0.33 [ms]
[OGL LOG][Proc: 0]p_local_coeffs: call_update: 0 [ms]
[OGL LOG][Proc: 0]p_non_local_coeffs: call_update: 0 [ms]
[OGL LOG][Proc: 0]update_local_matrix_data: 152.585 [ms]
[OGL LOG][Proc: 0]update_non_local_matrix_data: 0.901 [ms]
[OGL LOG][Proc: 0]p_matrix: call_update: 73.3 [ms]
[OGL LOG][Proc: 0]p_rhs: call_update: 29.206 [ms]
[OGL LOG][Proc: 0]init_precond: 0.03 [ms]
[OGL LOG][StoppingCriterion.H:588] Creating stopping criterion with minIter 828 frequency 10
[OGL LOG][Proc: 0]generate_solver: 0.002 [ms]
[OGL LOG][Proc: 0]solve: 16580.8 [ms]
[OGL LOG][Proc: 0]copy_x_back: 29.718 [ms]
[OGL LOG][lduLduBase.H:303] 
Statistics:
	Time per iteration: 12943 [mu s]
	Time per residual norm calculation: 4768.000000 [mu s]
	Time per iteration and DOF: 0.202234 [ns]
	Retrieve results bandwith 0.430000 [GByte/s]
nonecudaGKOCG:  Solving for p, Initial residual = 0.012789, Final residual = 9.88756e-05, No Iterations 1281
linear solve p 16901714
time step continuity errors : sum local = 1.78698e-10, global = -1.16555e-22, cumulative = -8.24219e-22
ExecutionTime = 968.67 s  ClockTime = 982 s

Time = 0.000425

Courant Number mean: 0.00485334 max: 0.0961181
DILUPBiCGStab:  Solving for Ux, Initial residual = 0.00930979, Final residual = 7.48928e-06, No Iterations 5
DILUPBiCGStab:  Solving for Uy, Initial residual = 0.0146105, Final residual = 9.21962e-06, No Iterations 5
DILUPBiCGStab:  Solving for Uz, Initial residual = 0.0289188, Final residual = 3.23829e-05, No Iterations 5
linear solve U 5627339
[OGL LOG][Proc: 0]global_index_init: 0.064 [ms]
[OGL LOG][Proc: 0]p_local_coeffs: call_update: 0 [ms]
[OGL LOG][Proc: 0]p_non_local_coeffs: call_update: 0 [ms]
[OGL LOG][Proc: 0]update_local_matrix_data: 158.215 [ms]
[OGL LOG][Proc: 0]update_non_local_matrix_data: 1.891 [ms]
[OGL LOG][Proc: 0]p_matrix: call_update: 73.515 [ms]
[OGL LOG][Proc: 0]p_rhs: call_update: 21.761 [ms]
[OGL LOG][Proc: 0]init_precond: 0.03 [ms]
[OGL LOG][StoppingCriterion.H:588] Creating stopping criterion with minIter 768 frequency 10
[OGL LOG][Proc: 0]generate_solver: 0.001 [ms]
[OGL LOG][Proc: 0]solve: 17540.7 [ms]
[OGL LOG][Proc: 0]copy_x_back: 27.951 [ms]
[OGL LOG][lduLduBase.H:303] 
Statistics:
	Time per iteration: 12983 [mu s]
	Time per residual norm calculation: 5074.000000 [mu s]
	Time per iteration and DOF: 0.202859 [ns]
	Retrieve results bandwith 0.457000 [GByte/s]
nonecudaGKOCG:  Solving for p, Initial residual = 0.0123188, Final residual = 9.80515e-05, No Iterations 1351
linear solve p 17858497
time step continuity errors : sum local = 1.84179e-10, global = 9.81889e-23, cumulative = -7.2603e-22
[OGL LOG][Proc: 0]global_index_init: 0.089 [ms]
[OGL LOG][Proc: 0]p_local_coeffs: call_update: 0 [ms]
[OGL LOG][Proc: 0]p_non_local_coeffs: call_update: 0 [ms]
[OGL LOG][Proc: 0]update_local_matrix_data: 152.689 [ms]
[OGL LOG][Proc: 0]update_non_local_matrix_data: 0.787 [ms]
[OGL LOG][Proc: 0]p_matrix: call_update: 51.177 [ms]
[OGL LOG][Proc: 0]p_rhs: call_update: 46.973 [ms]
[OGL LOG][Proc: 0]init_precond: 0.029 [ms]
[OGL LOG][StoppingCriterion.H:588] Creating stopping criterion with minIter 810 frequency 10
[OGL LOG][Proc: 0]generate_solver: 0.001 [ms]
[OGL LOG][Proc: 0]solve: 16581.1 [ms]
[OGL LOG][Proc: 0]copy_x_back: 28.599 [ms]
[OGL LOG][lduLduBase.H:303] 
Statistics:
	Time per iteration: 12943 [mu s]
	Time per residual norm calculation: 5664.000000 [mu s]
	Time per iteration and DOF: 0.202234 [ns]
	Retrieve results bandwith 0.447000 [GByte/s]
nonecudaGKOCG:  Solving for p, Initial residual = 0.0117893, Final residual = 9.84813e-05, No Iterations 1281
linear solve p 16897519
time step continuity errors : sum local = 1.74641e-10, global = 1.1499e-22, cumulative = -6.1104e-22
ExecutionTime = 1013.43 s  ClockTime = 1027 s

Time = 0.00045

Courant Number mean: 0.00498237 max: 0.0962307
DILUPBiCGStab:  Solving for Ux, Initial residual = 0.00880349, Final residual = 6.97943e-06, No Iterations 5
DILUPBiCGStab:  Solving for Uy, Initial residual = 0.0137022, Final residual = 8.58861e-06, No Iterations 5
DILUPBiCGStab:  Solving for Uz, Initial residual = 0.0275568, Final residual = 3.25929e-05, No Iterations 5
linear solve U 5644186
[OGL LOG][Proc: 0]global_index_init: 0.253 [ms]
[OGL LOG][Proc: 0]p_local_coeffs: call_update: 0 [ms]
[OGL LOG][Proc: 0]p_non_local_coeffs: call_update: 0 [ms]
[OGL LOG][Proc: 0]update_local_matrix_data: 156.083 [ms]
[OGL LOG][Proc: 0]update_non_local_matrix_data: 0.519 [ms]
[OGL LOG][Proc: 0]p_matrix: call_update: 64.638 [ms]
[OGL LOG][Proc: 0]p_rhs: call_update: 36.461 [ms]
[OGL LOG][Proc: 0]init_precond: 0.029 [ms]
[OGL LOG][StoppingCriterion.H:588] Creating stopping criterion with minIter 768 frequency 10
[OGL LOG][Proc: 0]generate_solver: 0.001 [ms]
[OGL LOG][Proc: 0]solve: 37971.1 [ms]
[OGL LOG][Proc: 0]copy_x_back: 25.822 [ms]
[OGL LOG][lduLduBase.H:303] 
Statistics:
	Time per iteration: 13088 [mu s]
	Time per residual norm calculation: 4785.000000 [mu s]
	Time per iteration and DOF: 0.204500 [ns]
	Retrieve results bandwith 0.495000 [GByte/s]
nonecudaGKOCG:  Solving for p, Initial residual = 0.0114617, Final residual = 8.67051e-05, No Iterations 2901
linear solve p 38292053
time step continuity errors : sum local = 1.5161e-10, global = -9.02406e-23, cumulative = -7.01281e-22
[OGL LOG][Proc: 0]global_index_init: 0.256 [ms]
[OGL LOG][Proc: 0]p_local_coeffs: call_update: 0 [ms]
[OGL LOG][Proc: 0]p_non_local_coeffs: call_update: 0 [ms]
[OGL LOG][Proc: 0]update_local_matrix_data: 153.943 [ms]
[OGL LOG][Proc: 0]update_non_local_matrix_data: 1.132 [ms]
[OGL LOG][Proc: 0]p_matrix: call_update: 73.598 [ms]
[OGL LOG][Proc: 0]p_rhs: call_update: 22.144 [ms]
[OGL LOG][Proc: 0]init_precond: 0.031 [ms]
[OGL LOG][StoppingCriterion.H:588] Creating stopping criterion with minIter 1740 frequency 10
[OGL LOG][Proc: 0]generate_solver: 0.001 [ms]
[OGL LOG][Proc: 0]solve: 37392.6 [ms]
[OGL LOG][Proc: 0]copy_x_back: 29.636 [ms]
[OGL LOG][lduLduBase.H:303] 
Statistics:
	Time per iteration: 12934 [mu s]
	Time per residual norm calculation: 5065.000000 [mu s]
	Time per iteration and DOF: 0.202094 [ns]
	Retrieve results bandwith 0.431000 [GByte/s]
nonecudaGKOCG:  Solving for p, Initial residual = 0.0109899, Final residual = 9.42777e-05, No Iterations 2891
linear solve p 37707726
time step continuity errors : sum local = 1.64908e-10, global = -1.1104e-22, cumulative = -8.1232e-22
ExecutionTime = 1099.36 s  ClockTime = 1113 s

Time = 0.000475

Courant Number mean: 0.0051064 max: 0.0963334
DILUPBiCGStab:  Solving for Ux, Initial residual = 0.00834019, Final residual = 6.53243e-06, No Iterations 5
DILUPBiCGStab:  Solving for Uy, Initial residual = 0.0129157, Final residual = 8.00701e-06, No Iterations 5
DILUPBiCGStab:  Solving for Uz, Initial residual = 0.0248818, Final residual = 1.89903e-05, No Iterations 5
linear solve U 5631918
[OGL LOG][Proc: 0]global_index_init: 0.487 [ms]
[OGL LOG][Proc: 0]p_local_coeffs: call_update: 0 [ms]
[OGL LOG][Proc: 0]p_non_local_coeffs: call_update: 0 [ms]
[OGL LOG][Proc: 0]update_local_matrix_data: 158.369 [ms]
[OGL LOG][Proc: 0]update_non_local_matrix_data: 0.943 [ms]
[OGL LOG][Proc: 0]p_matrix: call_update: 65.529 [ms]
[OGL LOG][Proc: 0]p_rhs: call_update: 29.476 [ms]
[OGL LOG][Proc: 0]init_precond: 0.029 [ms]
[OGL LOG][StoppingCriterion.H:588] Creating stopping criterion with minIter 1734 frequency 10
[OGL LOG][Proc: 0]generate_solver: 0.002 [ms]
[OGL LOG][Proc: 0]solve: 36990.8 [ms]
[OGL LOG][Proc: 0]copy_x_back: 26.296 [ms]
[OGL LOG][lduLduBase.H:303] 
Statistics:
	Time per iteration: 12929 [mu s]
	Time per residual norm calculation: 3885.000000 [mu s]
	Time per iteration and DOF: 0.202016 [ns]
	Retrieve results bandwith 0.486000 [GByte/s]
nonecudaGKOCG:  Solving for p, Initial residual = 0.010703, Final residual = 8.07521e-05, No Iterations 2861
linear solve p 37309237
time step continuity errors : sum local = 1.41233e-10, global = -7.25315e-23, cumulative = -8.84852e-22
[OGL LOG][Proc: 0]global_index_init: 0.054 [ms]
[OGL LOG][Proc: 0]p_local_coeffs: call_update: 0 [ms]
[OGL LOG][Proc: 0]p_non_local_coeffs: call_update: 0 [ms]
[OGL LOG][Proc: 0]update_local_matrix_data: 153.767 [ms]
[OGL LOG][Proc: 0]update_non_local_matrix_data: 1.411 [ms]
[OGL LOG][Proc: 0]p_matrix: call_update: 74.587 [ms]
[OGL LOG][Proc: 0]p_rhs: call_update: 25.112 [ms]
[OGL LOG][Proc: 0]init_precond: 0.032 [ms]
[OGL LOG][StoppingCriterion.H:588] Creating stopping criterion with minIter 1716 frequency 10
[OGL LOG][Proc: 0]generate_solver: 0.001 [ms]
[OGL LOG][Proc: 0]solve: 36872 [ms]
[OGL LOG][Proc: 0]copy_x_back: 30.093 [ms]
[OGL LOG][lduLduBase.H:303] 
Statistics:
	Time per iteration: 12933 [mu s]
	Time per residual norm calculation: 4468.000000 [mu s]
	Time per iteration and DOF: 0.202078 [ns]
	Retrieve results bandwith 0.425000 [GByte/s]
nonecudaGKOCG:  Solving for p, Initial residual = 0.0102733, Final residual = 9.27522e-05, No Iterations 2851
linear solve p 37191906
time step continuity errors : sum local = 1.62262e-10, global = 2.93318e-23, cumulative = -8.5552e-22
ExecutionTime = 1183.79 s  ClockTime = 1198 s

Time = 0.0005

Courant Number mean: 0.00522599 max: 0.0964275
DILUPBiCGStab:  Solving for Ux, Initial residual = 0.00792634, Final residual = 6.14174e-06, No Iterations 5
DILUPBiCGStab:  Solving for Uy, Initial residual = 0.0122069, Final residual = 7.47555e-06, No Iterations 5
DILUPBiCGStab:  Solving for Uz, Initial residual = 0.0234428, Final residual = 1.0677e-05, No Iterations 5
linear solve U 5631090
[OGL LOG][Proc: 0]global_index_init: 0.045 [ms]
[OGL LOG][Proc: 0]p_local_coeffs: call_update: 0 [ms]
[OGL LOG][Proc: 0]p_non_local_coeffs: call_update: 0 [ms]
[OGL LOG][Proc: 0]update_local_matrix_data: 158.072 [ms]
[OGL LOG][Proc: 0]update_non_local_matrix_data: 0.902 [ms]
[OGL LOG][Proc: 0]p_matrix: call_update: 74.422 [ms]
[OGL LOG][Proc: 0]p_rhs: call_update: 29.656 [ms]
[OGL LOG][Proc: 0]init_precond: 0.029 [ms]
[OGL LOG][StoppingCriterion.H:588] Creating stopping criterion with minIter 1710 frequency 10
[OGL LOG][Proc: 0]generate_solver: 0.001 [ms]
[OGL LOG][Proc: 0]solve: 21843.5 [ms]
[OGL LOG][Proc: 0]copy_x_back: 29.038 [ms]
[OGL LOG][lduLduBase.H:303] 
Statistics:
	Time per iteration: 12766 [mu s]
	Time per residual norm calculation: 4045.000000 [mu s]
	Time per iteration and DOF: 0.199469 [ns]
	Retrieve results bandwith 0.440000 [GByte/s]
nonecudaGKOCG:  Solving for p, Initial residual = 0.0098867, Final residual = 4.80416e-05, No Iterations 1711
linear solve p 22168953
time step continuity errors : sum local = 8.65288e-11, global = 8.69315e-24, cumulative = -8.46827e-22
[OGL LOG][Proc: 0]global_index_init: 0.811 [ms]
[OGL LOG][Proc: 0]p_local_coeffs: call_update: 0 [ms]
[OGL LOG][Proc: 0]p_non_local_coeffs: call_update: 0 [ms]
[OGL LOG][Proc: 0]update_local_matrix_data: 153.397 [ms]
[OGL LOG][Proc: 0]update_non_local_matrix_data: 1.575 [ms]
[OGL LOG][Proc: 0]p_matrix: call_update: 71.814 [ms]
[OGL LOG][Proc: 0]p_rhs: call_update: 24.853 [ms]
[OGL LOG][Proc: 0]init_precond: 0.029 [ms]
[OGL LOG][StoppingCriterion.H:588] Creating stopping criterion with minIter 1026 frequency 10
[OGL LOG][Proc: 0]generate_solver: 0.001 [ms]
[OGL LOG][Proc: 0]solve: 14770.2 [ms]
[OGL LOG][Proc: 0]copy_x_back: 29.509 [ms]
[OGL LOG][lduLduBase.H:303] 
Statistics:
	Time per iteration: 12832 [mu s]
	Time per residual norm calculation: 4777.000000 [mu s]
	Time per iteration and DOF: 0.200500 [ns]
	Retrieve results bandwith 0.433000 [GByte/s]
nonecudaGKOCG:  Solving for p, Initial residual = 0.00950425, Final residual = 8.75361e-05, No Iterations 1151
linear solve p 15085570
time step continuity errors : sum local = 1.54065e-10, global = -6.77439e-23, cumulative = -9.14571e-22
ExecutionTime = 1231.05 s  ClockTime = 1245 s

End

Finalising parallel run
================================================================================
hash: 96f5fc98f40fc5848d6c8908ce77d6cb
/*---------------------------------------------------------------------------*\
| =========                 |                                                 |
| \\      /  F ield         | OpenFOAM: The Open Source CFD Toolbox           |
|  \\    /   O peration     | Version:  2112                                  |
|   \\  /    A nd           | Website:  www.openfoam.com                      |
|    \\/     M anipulation  |                                                 |
\*---------------------------------------------------------------------------*/
Build  : d44c8318f0-20220111 OPENFOAM=2112 version=v2112
Arch   : "LSB;label=32;scalar=64"
Exec   : icoFoam -parallel
Date   : Oct 09 2022
Time   : 21:48:37
Host   : hkn0514.localdomain
PID    : 3710444
I/O    : uncollated
                                                                                                                                                                                                                                                                                                                                                                                                                                                                                                                                                                                                                                                                                                                                                                                                                                                                                                                                                                                                                                                                                                                                                                                                                                                                                                                                                                                                                                                                                                                                                                                                                                                                                                                                                                                                                                                                                                                                                                                                                                                                                                                                                                                                                                                                                                                                                                                                                                                                                                                                                                                                                                                                                                                                                                                                                                                                                                                                                                                                                                                                                                                                                                                         [OGL LOG][Proc: 0]global_index_init: 0.015 [ms]
[OGL LOG][Proc: 0]p_local_coeffs: call_update: 0.001 [ms]
[OGL LOG][Proc: 0]p_non_local_coeffs: call_update: 0 [ms]
[OGL LOG][Proc: 0]update_local_matrix_data: 192.017 [ms]
[OGL LOG][Proc: 0]update_non_local_matrix_data: 1.206 [ms]
[OGL LOG][Proc: 0]p_matrix: call_update: 70.766 [ms]
[OGL LOG][Proc: 0]p_rhs: call_update: 33.795 [ms]
[OGL LOG][Proc: 0]init_precond: 0.039 [ms]
[OGL LOG][StoppingCriterion.H:588] Creating stopping criterion with minIter 1956 frequency 10
[OGL LOG][Proc: 0]generate_solver: 0.001 [ms]
[OGL LOG][Proc: 0]solve: 26562.7 [ms]
[OGL LOG][Proc: 0]copy_x_back: 25.564 [ms]
[OGL LOG][lduLduBase.H:303] 
Statistics:
	Time per iteration: 8195 [mu s]
	Time per residual norm calculation: 2736.000000 [mu s]
	Time per iteration and DOF: 0.128047 [ns]
	Retrieve results bandwith 1.001000 [GByte/s]
nonecudaGKOCG:  Solving for p, Initial residual = 0.718373, Final residual = 9.40596e-05, No Iterations 3241
linear solve p 26925556
time step continuity errors : sum local = 3.09758e-10, global = 4.07027e-24, cumulative = -2.15705e-23
ExecutionTime = 78.77 s  ClockTime = 83 s

Time = 5e-05

Courant Number mean: 0.00116722 max: 0.0751111
DILUPBiCGStab:  Solving for Ux, Initial residual = 0.159865, Final residual = 0.000878477, No Iterations 5
DILUPBiCGStab:  Solving for Uy, Initial residual = 0.348721, Final residual = 0.000904918, No Iterations 5
DILUPBiCGStab:  Solving for Uz, Initial residual = 0.994529, Final residual = 0.00335017, No Iterations 5
linear solve U 7174735
[OGL LOG][Proc: 0]global_index_init: 0.014 [ms]
[OGL LOG][Proc: 0]p_local_coeffs: call_update: 0 [ms]
[OGL LOG][Proc: 0]p_non_local_coeffs: call_update: 0 [ms]
[OGL LOG][Proc: 0]update_local_matrix_data: 204.75 [ms]
[OGL LOG][Proc: 0]update_non_local_matrix_data: 1.932 [ms]
[OGL LOG][Proc: 0]p_matrix: call_update: 74.453 [ms]
[OGL LOG][Proc: 0]p_rhs: call_update: 28.119 [ms]
[OGL LOG][Proc: 0]init_precond: 0.03 [ms]
[OGL LOG][StoppingCriterion.H:588] Creating stopping criterion with minIter 1944 frequency 10
[OGL LOG][Proc: 0]generate_solver: 0.001 [ms]
[OGL LOG][Proc: 0]solve: 26066.4 [ms]
[OGL LOG][Proc: 0]copy_x_back: 29.126 [ms]
[OGL LOG][lduLduBase.H:303] 
Statistics:
	Time per iteration: 8194 [mu s]
	Time per residual norm calculation: 2449.000000 [mu s]
	Time per iteration and DOF: 0.128031 [ns]
	Retrieve results bandwith 0.878000 [GByte/s]
nonecudaGKOCG:  Solving for p, Initial residual = 0.663646, Final residual = 9.82278e-05, No Iterations 3181
linear solve p 26441740
time step continuity errors : sum local = 3.5395e-10, global = 6.61244e-24, cumulative = -1.4958e-23
[OGL LOG][Proc: 0]global_index_init: 0.015 [ms]
[OGL LOG][Proc: 0]p_local_coeffs: call_update: 0 [ms]
[OGL LOG][Proc: 0]p_non_local_coeffs: call_update: 0 [ms]
[OGL LOG][Proc: 0]update_local_matrix_data: 193.571 [ms]
[OGL LOG][Proc: 0]update_non_local_matrix_data: 1.883 [ms]
[OGL LOG][Proc: 0]p_matrix: call_update: 71.418 [ms]
[OGL LOG][Proc: 0]p_rhs: call_update: 32.932 [ms]
[OGL LOG][Proc: 0]init_precond: 0.034 [ms]
[OGL LOG][StoppingCriterion.H:588] Creating stopping criterion with minIter 1908 frequency 10
[OGL LOG][Proc: 0]generate_solver: 0.002 [ms]
[OGL LOG][Proc: 0]solve: 26098 [ms]
[OGL LOG][Proc: 0]copy_x_back: 25.686 [ms]
[OGL LOG][lduLduBase.H:303] 
Statistics:
	Time per iteration: 8204 [mu s]
	Time per residual norm calculation: 2427.000000 [mu s]
	Time per iteration and DOF: 0.128188 [ns]
	Retrieve results bandwith 0.996000 [GByte/s]
nonecudaGKOCG:  Solving for p, Initial residual = 0.589128, Final residual = 8.65146e-05, No Iterations 3181
linear solve p 26468026
time step continuity errors : sum local = 3.17185e-10, global = 4.25788e-24, cumulative = -1.07002e-23
ExecutionTime = 144.45 s  ClockTime = 149 s

Time = 7.5e-05

Courant Number mean: 0.00178037 max: 0.0870159
DILUPBiCGStab:  Solving for Ux, Initial residual = 0.0661631, Final residual = 0.000261036, No Iterations 5
DILUPBiCGStab:  Solving for Uy, Initial residual = 0.138217, Final residual = 0.000258482, No Iterations 5
DILUPBiCGStab:  Solving for Uz, Initial residual = 0.43823, Final residual = 0.00193858, No Iterations 5
linear solve U 7162085
[OGL LOG][Proc: 0]global_index_init: 0.015 [ms]
[OGL LOG][Proc: 0]p_local_coeffs: call_update: 0 [ms]
[OGL LOG][Proc: 0]p_non_local_coeffs: call_update: 0 [ms]
[OGL LOG][Proc: 0]update_local_matrix_data: 207.211 [ms]
[OGL LOG][Proc: 0]update_non_local_matrix_data: 1.19 [ms]
[OGL LOG][Proc: 0]p_matrix: call_update: 73.703 [ms]
[OGL LOG][Proc: 0]p_rhs: call_update: 28.478 [ms]
[OGL LOG][Proc: 0]init_precond: 0.029 [ms]
[OGL LOG][StoppingCriterion.H:588] Creating stopping criterion with minIter 1908 frequency 10
[OGL LOG][Proc: 0]generate_solver: 0.001 [ms]
[OGL LOG][Proc: 0]solve: 25665.8 [ms]
[OGL LOG][Proc: 0]copy_x_back: 28.622 [ms]
[OGL LOG][lduLduBase.H:303] 
Statistics:
	Time per iteration: 8197 [mu s]
	Time per residual norm calculation: 2887.000000 [mu s]
	Time per iteration and DOF: 0.128078 [ns]
	Retrieve results bandwith 0.894000 [GByte/s]
nonecudaGKOCG:  Solving for p, Initial residual = 0.5628, Final residual = 9.90284e-05, No Iterations 3131
linear solve p 26043783
time step continuity errors : sum local = 2.53967e-10, global = -1.09681e-22, cumulative = -1.20381e-22
[OGL LOG][Proc: 0]global_index_init: 0.015 [ms]
[OGL LOG][Proc: 0]p_local_coeffs: call_update: 0 [ms]
[OGL LOG][Proc: 0]p_non_local_coeffs: call_update: 0 [ms]
[OGL LOG][Proc: 0]update_local_matrix_data: 190.793 [ms]
[OGL LOG][Proc: 0]update_non_local_matrix_data: 0.766 [ms]
[OGL LOG][Proc: 0]p_matrix: call_update: 68.171 [ms]
[OGL LOG][Proc: 0]p_rhs: call_update: 38.642 [ms]
[OGL LOG][Proc: 0]init_precond: 0.026 [ms]
[OGL LOG][StoppingCriterion.H:588] Creating stopping criterion with minIter 1878 frequency 10
[OGL LOG][Proc: 0]generate_solver: 0.006 [ms]
[OGL LOG][Proc: 0]solve: 25686.4 [ms]
[OGL LOG][Proc: 0]copy_x_back: 25.927 [ms]
[OGL LOG][lduLduBase.H:303] 
Statistics:
	Time per iteration: 8203 [mu s]
	Time per residual norm calculation: 2446.000000 [mu s]
	Time per iteration and DOF: 0.128172 [ns]
	Retrieve results bandwith 0.987000 [GByte/s]
nonecudaGKOCG:  Solving for p, Initial residual = 0.504877, Final residual = 9.40119e-05, No Iterations 3131
linear solve p 26055807
time step continuity errors : sum local = 2.35954e-10, global = 6.07647e-23, cumulative = -5.96163e-23
ExecutionTime = 209.31 s  ClockTime = 214 s

Time = 0.0001

Courant Number mean: 0.00220757 max: 0.0903127
DILUPBiCGStab:  Solving for Ux, Initial residual = 0.0437049, Final residual = 0.000115925, No Iterations 5
DILUPBiCGStab:  Solving for Uy, Initial residual = 0.0872265, Final residual = 0.000103571, No Iterations 5
DILUPBiCGStab:  Solving for Uz, Initial residual = 0.133814, Final residual = 0.000390841, No Iterations 5
linear solve U 7143370
[OGL LOG][Proc: 0]global_index_init: 0.014 [ms]
[OGL LOG][Proc: 0]p_local_coeffs: call_update: 0 [ms]
[OGL LOG][Proc: 0]p_non_local_coeffs: call_update: 0 [ms]
[OGL LOG][Proc: 0]update_local_matrix_data: 206.039 [ms]
[OGL LOG][Proc: 0]update_non_local_matrix_data: 1.218 [ms]
[OGL LOG][Proc: 0]p_matrix: call_update: 71.666 [ms]
[OGL LOG][Proc: 0]p_rhs: call_update: 31.236 [ms]
[OGL LOG][Proc: 0]init_precond: 0.028 [ms]
[OGL LOG][StoppingCriterion.H:588] Creating stopping criterion with minIter 1878 frequency 10
[OGL LOG][Proc: 0]generate_solver: 0.001 [ms]
[OGL LOG][Proc: 0]solve: 25453.6 [ms]
[OGL LOG][Proc: 0]copy_x_back: 28.392 [ms]
[OGL LOG][lduLduBase.H:303] 
Statistics:
	Time per iteration: 8208 [mu s]
	Time per residual norm calculation: 2441.000000 [mu s]
	Time per iteration and DOF: 0.128250 [ns]
	Retrieve results bandwith 0.901000 [GByte/s]
nonecudaGKOCG:  Solving for p, Initial residual = 0.327265, Final residual = 9.00012e-05, No Iterations 3101
linear solve p 25834046
time step continuity errors : sum local = 1.95886e-10, global = -3.34231e-23, cumulative = -9.30395e-23
[OGL LOG][Proc: 0]global_index_init: 0.026 [ms]
[OGL LOG][Proc: 0]p_local_coeffs: call_update: 0 [ms]
[OGL LOG][Proc: 0]p_non_local_coeffs: call_update: 0 [ms]
[OGL LOG][Proc: 0]update_local_matrix_data: 190.67 [ms]
[OGL LOG][Proc: 0]update_non_local_matrix_data: 0.906 [ms]
[OGL LOG][Proc: 0]p_matrix: call_update: 65.59 [ms]
[OGL LOG][Proc: 0]p_rhs: call_update: 39.833 [ms]
[OGL LOG][Proc: 0]init_precond: 0.027 [ms]
[OGL LOG][StoppingCriterion.H:588] Creating stopping criterion with minIter 1860 frequency 10
[OGL LOG][Proc: 0]generate_solver: 0.001 [ms]
[OGL LOG][Proc: 0]solve: 25440.9 [ms]
[OGL LOG][Proc: 0]copy_x_back: 25.113 [ms]
[OGL LOG][lduLduBase.H:303] 
Statistics:
	Time per iteration: 8204 [mu s]
	Time per residual norm calculation: 2738.000000 [mu s]
	Time per iteration and DOF: 0.128188 [ns]
	Retrieve results bandwith 1.019000 [GByte/s]
nonecudaGKOCG:  Solving for p, Initial residual = 0.272533, Final residual = 8.34732e-05, No Iterations 3101
linear solve p 25802864
time step continuity errors : sum local = 1.82999e-10, global = 6.93765e-23, cumulative = -2.36629e-23
ExecutionTime = 273.7 s  ClockTime = 279 s

Time = 0.000125

Courant Number mean: 0.00255331 max: 0.0919042
DILUPBiCGStab:  Solving for Ux, Initial residual = 0.033271, Final residual = 7.24244e-05, No Iterations 5
DILUPBiCGStab:  Solving for Uy, Initial residual = 0.0630109, Final residual = 6.32154e-05, No Iterations 5
DILUPBiCGStab:  Solving for Uz, Initial residual = 0.0888374, Final residual = 0.000245859, No Iterations 5
linear solve U 7151124
[OGL LOG][Proc: 0]global_index_init: 0.014 [ms]
[OGL LOG][Proc: 0]p_local_coeffs: call_update: 0 [ms]
[OGL LOG][Proc: 0]p_non_local_coeffs: call_update: 0 [ms]
[OGL LOG][Proc: 0]update_local_matrix_data: 206.842 [ms]
[OGL LOG][Proc: 0]update_non_local_matrix_data: 1.287 [ms]
[OGL LOG][Proc: 0]p_matrix: call_update: 71.02 [ms]
[OGL LOG][Proc: 0]p_rhs: call_update: 30.409 [ms]
[OGL LOG][Proc: 0]init_precond: 0.029 [ms]
[OGL LOG][StoppingCriterion.H:588] Creating stopping criterion with minIter 1860 frequency 10
[OGL LOG][Proc: 0]generate_solver: 0.001 [ms]
[OGL LOG][Proc: 0]solve: 24595.5 [ms]
[OGL LOG][Proc: 0]copy_x_back: 28.33 [ms]
[OGL LOG][lduLduBase.H:303] 
Statistics:
	Time per iteration: 8195 [mu s]
	Time per residual norm calculation: 1986.000000 [mu s]
	Time per iteration and DOF: 0.128047 [ns]
	Retrieve results bandwith 0.903000 [GByte/s]
nonecudaGKOCG:  Solving for p, Initial residual = 0.219991, Final residual = 8.8984e-05, No Iterations 3001
linear solve p 24976556
time step continuity errors : sum local = 1.71093e-10, global = -6.72391e-24, cumulative = -3.03869e-23
[OGL LOG][Proc: 0]global_index_init: 0.084 [ms]
[OGL LOG][Proc: 0]p_local_coeffs: call_update: 0 [ms]
[OGL LOG][Proc: 0]p_non_local_coeffs: call_update: 0 [ms]
[OGL LOG][Proc: 0]update_local_matrix_data: 190.995 [ms]
[OGL LOG][Proc: 0]update_non_local_matrix_data: 1.188 [ms]
[OGL LOG][Proc: 0]p_matrix: call_update: 68.178 [ms]
[OGL LOG][Proc: 0]p_rhs: call_update: 36.427 [ms]
[OGL LOG][Proc: 0]init_precond: 0.03 [ms]
[OGL LOG][StoppingCriterion.H:588] Creating stopping criterion with minIter 1800 frequency 10
[OGL LOG][Proc: 0]generate_solver: 0.001 [ms]
[OGL LOG][Proc: 0]solve: 24605.1 [ms]
[OGL LOG][Proc: 0]copy_x_back: 25.75 [ms]
[OGL LOG][lduLduBase.H:303] 
Statistics:
	Time per iteration: 8198 [mu s]
	Time per residual norm calculation: 2153.000000 [mu s]
	Time per iteration and DOF: 0.128094 [ns]
	Retrieve results bandwith 0.994000 [GByte/s]
nonecudaGKOCG:  Solving for p, Initial residual = 0.185591, Final residual = 8.08287e-05, No Iterations 3001
linear solve p 24967045
time step continuity errors : sum local = 1.54737e-10, global = -1.16533e-23, cumulative = -4.20402e-23
ExecutionTime = 336.41 s  ClockTime = 342 s

Time = 0.00015

Courant Number mean: 0.00284851 max: 0.0928884
DILUPBiCGStab:  Solving for Ux, Initial residual = 0.0270565, Final residual = 4.97689e-05, No Iterations 5
DILUPBiCGStab:  Solving for Uy, Initial residual = 0.0495072, Final residual = 2.89973e-05, No Iterations 5
DILUPBiCGStab:  Solving for Uz, Initial residual = 0.077438, Final residual = 0.000150655, No Iterations 5
linear solve U 7166003
[OGL LOG][Proc: 0]global_index_init: 4.065 [ms]
[OGL LOG][Proc: 0]p_local_coeffs: call_update: 0 [ms]
[OGL LOG][Proc: 0]p_non_local_coeffs: call_update: 0 [ms]
[OGL LOG][Proc: 0]update_local_matrix_data: 208.441 [ms]
[OGL LOG][Proc: 0]update_non_local_matrix_data: 0.641 [ms]
[OGL LOG][Proc: 0]p_matrix: call_update: 73.341 [ms]
[OGL LOG][Proc: 0]p_rhs: call_update: 29.626 [ms]
[OGL LOG][Proc: 0]init_precond: 0.03 [ms]
[OGL LOG][StoppingCriterion.H:588] Creating stopping criterion with minIter 1800 frequency 10
[OGL LOG][Proc: 0]generate_solver: 0.001 [ms]
[OGL LOG][Proc: 0]solve: 14647.9 [ms]
[OGL LOG][Proc: 0]copy_x_back: 28.087 [ms]
[OGL LOG][lduLduBase.H:303] 
Statistics:
	Time per iteration: 8133 [mu s]
	Time per residual norm calculation: 2446.000000 [mu s]
	Time per iteration and DOF: 0.127078 [ns]
	Retrieve results bandwith 0.911000 [GByte/s]
nonecudaGKOCG:  Solving for p, Initial residual = 0.13292, Final residual = 9.81329e-05, No Iterations 1801
linear solve p 15028834
time step continuity errors : sum local = 1.89009e-10, global = -7.59213e-23, cumulative = -1.17961e-22
[OGL LOG][Proc: 0]global_index_init: 0.955 [ms]
[OGL LOG][Proc: 0]p_local_coeffs: call_update: 0 [ms]
[OGL LOG][Proc: 0]p_non_local_coeffs: call_update: 0 [ms]
[OGL LOG][Proc: 0]update_local_matrix_data: 191.697 [ms]
[OGL LOG][Proc: 0]update_non_local_matrix_data: 1.45 [ms]
[OGL LOG][Proc: 0]p_matrix: call_update: 68.309 [ms]
[OGL LOG][Proc: 0]p_rhs: call_update: 34.043 [ms]
[OGL LOG][Proc: 0]init_precond: 0.029 [ms]
[OGL LOG][StoppingCriterion.H:588] Creating stopping criterion with minIter 1080 frequency 10
[OGL LOG][Proc: 0]generate_solver: 0.001 [ms]
[OGL LOG][Proc: 0]solve: 11202.9 [ms]
[OGL LOG][Proc: 0]copy_x_back: 25.226 [ms]
[OGL LOG][lduLduBase.H:303] 
Statistics:
	Time per iteration: 8171 [mu s]
	Time per residual norm calculation: 2741.000000 [mu s]
	Time per iteration and DOF: 0.127672 [ns]
	Retrieve results bandwith 1.014000 [GByte/s]
nonecudaGKOCG:  Solving for p, Initial residual = 0.110353, Final residual = 9.92582e-05, No Iterations 1371
linear solve p 11564692
time step continuity errors : sum local = 1.86885e-10, global = -9.43891e-24, cumulative = -1.274e-22
ExecutionTime = 375.79 s  ClockTime = 381 s

Time = 0.000175

Courant Number mean: 0.00310896 max: 0.093575
DILUPBiCGStab:  Solving for Ux, Initial residual = 0.0228942, Final residual = 3.64613e-05, No Iterations 5
DILUPBiCGStab:  Solving for Uy, Initial residual = 0.040767, Final residual = 2.61358e-05, No Iterations 5
DILUPBiCGStab:  Solving for Uz, Initial residual = 0.0670672, Final residual = 9.99596e-05, No Iterations 5
linear solve U 7168962
[OGL LOG][Proc: 0]global_index_init: 0.015 [ms]
[OGL LOG][Proc: 0]p_local_coeffs: call_update: 0 [ms]
[OGL LOG][Proc: 0]p_non_local_coeffs: call_update: 0 [ms]
[OGL LOG][Proc: 0]update_local_matrix_data: 206.882 [ms]
[OGL LOG][Proc: 0]update_non_local_matrix_data: 0.694 [ms]
[OGL LOG][Proc: 0]p_matrix: call_update: 73.386 [ms]
[OGL LOG][Proc: 0]p_rhs: call_update: 28.117 [ms]
[OGL LOG][Proc: 0]init_precond: 0.025 [ms]
[OGL LOG][StoppingCriterion.H:588] Creating stopping criterion with minIter 822 frequency 10
[OGL LOG][Proc: 0]generate_solver: 0.001 [ms]
[OGL LOG][Proc: 0]solve: 11097.9 [ms]
[OGL LOG][Proc: 0]copy_x_back: 28.077 [ms]
[OGL LOG][lduLduBase.H:303] 
Statistics:
	Time per iteration: 8214 [mu s]
	Time per residual norm calculation: 2443.000000 [mu s]
	Time per iteration and DOF: 0.128344 [ns]
	Retrieve results bandwith 0.911000 [GByte/s]
nonecudaGKOCG:  Solving for p, Initial residual = 0.0913992, Final residual = 9.67867e-05, No Iterations 1351
linear solve p 11475051
time step continuity errors : sum local = 1.74554e-10, global = -2.13973e-23, cumulative = -1.48798e-22
[OGL LOG][Proc: 0]global_index_init: 0.126 [ms]
[OGL LOG][Proc: 0]p_local_coeffs: call_update: 0 [ms]
[OGL LOG][Proc: 0]p_non_local_coeffs: call_update: 0 [ms]
[OGL LOG][Proc: 0]update_local_matrix_data: 191.005 [ms]
[OGL LOG][Proc: 0]update_non_local_matrix_data: 0.847 [ms]
[OGL LOG][Proc: 0]p_matrix: call_update: 69.869 [ms]
[OGL LOG][Proc: 0]p_rhs: call_update: 34.706 [ms]
[OGL LOG][Proc: 0]init_precond: 0.025 [ms]
[OGL LOG][StoppingCriterion.H:588] Creating stopping criterion with minIter 810 frequency 10
[OGL LOG][Proc: 0]generate_solver: 0.001 [ms]
[OGL LOG][Proc: 0]solve: 10932.6 [ms]
[OGL LOG][Proc: 0]copy_x_back: 25.95 [ms]
[OGL LOG][lduLduBase.H:303] 
Statistics:
	Time per iteration: 8213 [mu s]
	Time per residual norm calculation: 1998.000000 [mu s]
	Time per iteration and DOF: 0.128328 [ns]
	Retrieve results bandwith 0.986000 [GByte/s]
nonecudaGKOCG:  Solving for p, Initial residual = 0.0765906, Final residual = 9.8014e-05, No Iterations 1331
linear solve p 11300184
time step continuity errors : sum local = 1.76796e-10, global = 1.90494e-23, cumulative = -1.29748e-22
ExecutionTime = 411.38 s  ClockTime = 417 s

Time = 0.0002

Courant Number mean: 0.00334349 max: 0.0940891
DILUPBiCGStab:  Solving for Ux, Initial residual = 0.0198986, Final residual = 2.77249e-05, No Iterations 5
DILUPBiCGStab:  Solving for Uy, Initial residual = 0.0346214, Final residual = 1.69618e-05, No Iterations 5
DILUPBiCGStab:  Solving for Uz, Initial residual = 0.0592861, Final residual = 6.99287e-05, No Iterations 5
linear solve U 7189428
[OGL LOG][Proc: 0]global_index_init: 0.015 [ms]
[OGL LOG][Proc: 0]p_local_coeffs: call_update: 0 [ms]
[OGL LOG][Proc: 0]p_non_local_coeffs: call_update: 0 [ms]
[OGL LOG][Proc: 0]update_local_matrix_data: 207.003 [ms]
[OGL LOG][Proc: 0]update_non_local_matrix_data: 1.752 [ms]
[OGL LOG][Proc: 0]p_matrix: call_update: 74.631 [ms]
[OGL LOG][Proc: 0]p_rhs: call_update: 26.459 [ms]
[OGL LOG][Proc: 0]init_precond: 0.03 [ms]
[OGL LOG][StoppingCriterion.H:588] Creating stopping criterion with minIter 798 frequency 10
[OGL LOG][Proc: 0]generate_solver: 0.001 [ms]
[OGL LOG][Proc: 0]solve: 10782.3 [ms]
[OGL LOG][Proc: 0]copy_x_back: 28.495 [ms]
[OGL LOG][lduLduBase.H:303] 
Statistics:
	Time per iteration: 8224 [mu s]
	Time per residual norm calculation: 2595.000000 [mu s]
	Time per iteration and DOF: 0.128500 [ns]
	Retrieve results bandwith 0.898000 [GByte/s]
nonecudaGKOCG:  Solving for p, Initial residual = 0.0595113, Final residual = 9.93016e-05, No Iterations 1311
linear solve p 11157848
time step continuity errors : sum local = 1.83242e-10, global = 6.74506e-23, cumulative = -6.22977e-23
[OGL LOG][Proc: 0]global_index_init: 0.013 [ms]
[OGL LOG][Proc: 0]p_local_coeffs: call_update: 0 [ms]
[OGL LOG][Proc: 0]p_non_local_coeffs: call_update: 0 [ms]
[OGL LOG][Proc: 0]update_local_matrix_data: 191.118 [ms]
[OGL LOG][Proc: 0]update_non_local_matrix_data: 2.636 [ms]
[OGL LOG][Proc: 0]p_matrix: call_update: 66.227 [ms]
[OGL LOG][Proc: 0]p_rhs: call_update: 38.376 [ms]
[OGL LOG][Proc: 0]init_precond: 0.026 [ms]
[OGL LOG][StoppingCriterion.H:588] Creating stopping criterion with minIter 786 frequency 10
[OGL LOG][Proc: 0]generate_solver: 0.001 [ms]
[OGL LOG][Proc: 0]solve: 10697.3 [ms]
[OGL LOG][Proc: 0]copy_x_back: 25.368 [ms]
[OGL LOG][lduLduBase.H:303] 
Statistics:
	Time per iteration: 8222 [mu s]
	Time per residual norm calculation: 2438.000000 [mu s]
	Time per iteration and DOF: 0.128469 [ns]
	Retrieve results bandwith 1.009000 [GByte/s]
nonecudaGKOCG:  Solving for p, Initial residual = 0.0512166, Final residual = 9.54369e-05, No Iterations 1301
linear solve p 11064805
time step continuity errors : sum local = 1.72204e-10, global = 1.24093e-23, cumulative = -4.98884e-23
ExecutionTime = 446.42 s  ClockTime = 452 s

Time = 0.000225

[...]
/*---------------------------------------------------------------------------*\
| =========                 |                                                 |
| \\      /  F ield         | OpenFOAM: The Open Source CFD Toolbox           |
|  \\    /   O peration     | Version:  2112                                  |
|   \\  /    A nd           | Website:  www.openfoam.com                      |
|    \\/     M anipulation  |                                                 |
\*---------------------------------------------------------------------------*/
Build  : d44c8318f0-20220111 OPENFOAM=2112 version=v2112
Arch   : "LSB;label=32;scalar=64"
Exec   : icoFoam -parallel
Date   : Oct 06 2022
Time   : 14:03:31
Host   : hkn0845.localdomain
PID    : 1241964
I/O    : uncollated
Case   : /hkfs/work/workspace/scratch/eq4036-lidDrivenCavity/single_node/mesh/100/matrix_solver/CG_NoPrecond_OpenFOAM_Default/mpiRank_of/76/base
nProcs : 76
Hosts  :
(
    (hkn0845.localdomain 76)
)
Pstream initialized with:
    floatTransfer      : 0
    nProcsSimpleSum    : 0
    commsType          : nonBlocking
    polling iterations : 0
trapFpe: Floating point exception trapping enabled (FOAM_SIGFPE).
fileModificationChecking : Monitoring run-time modified files using timeStampMaster (fileModificationSkew 5, maxFileModificationPolls 20)
allowSystemOperations : Allowing user-supplied system call operations

// * * * * * * * * * * * * * * * * * * * * * * * * * * * * * * * * * * * * * //
Create time

--> FOAM Warning : 
    From void* Foam::dlLibraryTable::openLibrary(const Foam::fileName&, bool)
    in file db/dynamicLibrary/dlLibraryTable/dlLibraryTable.C at line 188
    Could not load "libpetscFoam.so"
libcuda.so.1: cannot open shared object file: No such file or directory
Create mesh for time = 0


PISO: Operating solver in PISO mode

Reading transportProperties

Reading field p

Reading field U

Reading/calculating face flux field phi


Starting time loop

Time = 0.0001

Courant Number mean: 0 max: 0
DILUPBiCGStab:  Solving for Ux, Initial residual = 1, Final residual = 4.24195e-05, No Iterations 5
DILUPBiCGStab:  Solving for Uy:  solution singularity
DILUPBiCGStab:  Solving for Uz:  solution singularity
linear solve U 13334
nonePCG:  Solving for p, Initial residual = 1, Final residual = 9.71466e-05, No Iterations 794
linear solve p 236399
time step continuity errors : sum local = 1.71636e-09, global = -3.44123e-22, cumulative = -3.44123e-22
nonePCG:  Solving for p, Initial residual = 0.559957, Final residual = 9.81636e-05, No Iterations 777
linear solve p 190202
time step continuity errors : sum local = 2.68518e-09, global = -2.25126e-22, cumulative = -5.69249e-22
ExecutionTime = 0.87 s  ClockTime = 2 s

Time = 0.0002

Courant Number mean: 0.00201328 max: 0.0540371
DILUPBiCGStab:  Solving for Ux, Initial residual = 0.216463, Final residual = 2.0656e-05, No Iterations 5
DILUPBiCGStab:  Solving for Uy, Initial residual = 0.309947, Final residual = 2.07625e-05, No Iterations 5
DILUPBiCGStab:  Solving for Uz, Initial residual = 0.981322, Final residual = 7.16958e-05, No Iterations 5
linear solve U 18853
nonePCG:  Solving for p, Initial residual = 0.381695, Final residual = 9.16596e-05, No Iterations 769
linear solve p 202437
time step continuity errors : sum local = 2.39727e-09, global = 5.80541e-22, cumulative = 1.12923e-23
nonePCG:  Solving for p, Initial residual = 0.284799, Final residual = 9.70455e-05, No Iterations 764
linear solve p 199882
time step continuity errors : sum local = 2.65935e-09, global = -4.11526e-22, cumulative = -4.00234e-22
ExecutionTime = 1.32 s  ClockTime = 2 s

Time = 0.0003

Courant Number mean: 0.00317975 max: 0.0721773
DILUPBiCGStab:  Solving for Ux, Initial residual = 0.0963259, Final residual = 8.5543e-06, No Iterations 5
DILUPBiCGStab:  Solving for Uy, Initial residual = 0.140695, Final residual = 7.16239e-06, No Iterations 5
DILUPBiCGStab:  Solving for Uz, Initial residual = 0.205729, Final residual = 1.73224e-05, No Iterations 5
linear solve U 18284
nonePCG:  Solving for p, Initial residual = 0.128568, Final residual = 9.73992e-05, No Iterations 743
linear solve p 200292
time step continuity errors : sum local = 2.29503e-09, global = -1.75125e-21, cumulative = -2.15149e-21
nonePCG:  Solving for p, Initial residual = 0.0996026, Final residual = 9.4776e-05, No Iterations 737
linear solve p 202171
time step continuity errors : sum local = 2.26223e-09, global = -8.1734e-22, cumulative = -2.96883e-21
ExecutionTime = 1.76 s  ClockTime = 3 s

Time = 0.0004

Courant Number mean: 0.00397979 max: 0.0793325
DILUPBiCGStab:  Solving for Ux, Initial residual = 0.0593654, Final residual = 4.07886e-06, No Iterations 5
DILUPBiCGStab:  Solving for Uy, Initial residual = 0.0868106, Final residual = 3.52007e-06, No Iterations 5
DILUPBiCGStab:  Solving for Uz, Initial residual = 0.127109, Final residual = 6.65525e-06, No Iterations 5
linear solve U 26715
nonePCG:  Solving for p, Initial residual = 0.0642989, Final residual = 9.70822e-05, No Iterations 729
linear solve p 186205
time step continuity errors : sum local = 2.25082e-09, global = -1.59122e-21, cumulative = -4.56004e-21
nonePCG:  Solving for p, Initial residual = 0.0497339, Final residual = 9.73541e-05, No Iterations 720
linear solve p 177236
time step continuity errors : sum local = 2.29218e-09, global = -1.63742e-22, cumulative = -4.72378e-21
ExecutionTime = 2.18 s  ClockTime = 3 s

Time = 0.0005

Courant Number mean: 0.00460123 max: 0.082885
DILUPBiCGStab:  Solving for Ux, Initial residual = 0.0428603, Final residual = 1.60649e-06, No Iterations 5
DILUPBiCGStab:  Solving for Uy, Initial residual = 0.0618663, Final residual = 2.05086e-06, No Iterations 5
DILUPBiCGStab:  Solving for Uz, Initial residual = 0.0971584, Final residual = 4.1949e-06, No Iterations 5
linear solve U 18108
nonePCG:  Solving for p, Initial residual = 0.0389457, Final residual = 9.89917e-05, No Iterations 402
linear solve p 107325
time step continuity errors : sum local = 2.66536e-09, global = -2.24884e-21, cumulative = -6.97262e-21
nonePCG:  Solving for p, Initial residual = 0.0305765, Final residual = 9.85587e-05, No Iterations 339
linear solve p 93683
time step continuity errors : sum local = 2.4638e-09, global = -3.19083e-21, cumulative = -1.01634e-20
ExecutionTime = 2.43 s  ClockTime = 4 s

Time = 0.0006

Courant Number mean: 0.00511858 max: 0.0850107
DILUPBiCGStab:  Solving for Ux, Initial residual = 0.0336705, Final residual = 7.89158e-07, No Iterations 5
DILUPBiCGStab:  Solving for Uy, Initial residual = 0.0480502, Final residual = 1.39741e-06, No Iterations 5
DILUPBiCGStab:  Solving for Uz, Initial residual = 0.0802629, Final residual = 2.98583e-06, No Iterations 5
linear solve U 21176
nonePCG:  Solving for p, Initial residual = 0.0269247, Final residual = 9.74871e-05, No Iterations 341
linear solve p 83201
time step continuity errors : sum local = 2.54664e-09, global = -6.42792e-22, cumulative = -1.08062e-20
nonePCG:  Solving for p, Initial residual = 0.0213648, Final residual = 9.98096e-05, No Iterations 311
linear solve p 82025
time step continuity errors : sum local = 2.52661e-09, global = -1.73114e-21, cumulative = -1.25374e-20
ExecutionTime = 2.64 s  ClockTime = 4 s

Time = 0.0007

Courant Number mean: 0.00556491 max: 0.0864549
DILUPBiCGStab:  Solving for Ux, Initial residual = 0.027767, Final residual = 5.42585e-07, No Iterations 5
DILUPBiCGStab:  Solving for Uy, Initial residual = 0.0392382, Final residual = 1.07543e-06, No Iterations 5
DILUPBiCGStab:  Solving for Uz, Initial residual = 0.0677447, Final residual = 2.29915e-06, No Iterations 5
linear solve U 17846
nonePCG:  Solving for p, Initial residual = 0.0207712, Final residual = 9.71831e-05, No Iterations 301
linear solve p 77840
time step continuity errors : sum local = 2.59552e-09, global = -8.36486e-22, cumulative = -1.33739e-20
nonePCG:  Solving for p, Initial residual = 0.0165057, Final residual = 9.73691e-05, No Iterations 293
linear solve p 76272
time step continuity errors : sum local = 2.51882e-09, global = -2.17389e-21, cumulative = -1.55478e-20
ExecutionTime = 2.83 s  ClockTime = 4 s

Time = 0.0008

Courant Number mean: 0.00596223 max: 0.0875192
DILUPBiCGStab:  Solving for Ux, Initial residual = 0.0236246, Final residual = 4.34729e-07, No Iterations 5
DILUPBiCGStab:  Solving for Uy, Initial residual = 0.0331362, Final residual = 8.79632e-07, No Iterations 5
DILUPBiCGStab:  Solving for Uz, Initial residual = 0.0588701, Final residual = 1.89222e-06, No Iterations 5
linear solve U 18131
nonePCG:  Solving for p, Initial residual = 0.0166935, Final residual = 9.7696e-05, No Iterations 294
linear solve p 72146
time step continuity errors : sum local = 2.61869e-09, global = -2.00713e-21, cumulative = -1.75549e-20
nonePCG:  Solving for p, Initial residual = 0.0133966, Final residual = 9.89459e-05, No Iterations 287
linear solve p 74936
time step continuity errors : sum local = 2.5909e-09, global = -4.20001e-23, cumulative = -1.75969e-20
ExecutionTime = 3.03 s  ClockTime = 4 s

Time = 0.0009

Courant Number mean: 0.0063184 max: 0.0883466
DILUPBiCGStab:  Solving for Ux, Initial residual = 0.0205609, Final residual = 3.72402e-07, No Iterations 5
DILUPBiCGStab:  Solving for Uy, Initial residual = 0.0286503, Final residual = 7.45525e-07, No Iterations 5
DILUPBiCGStab:  Solving for Uz, Initial residual = 0.0520044, Final residual = 1.60422e-06, No Iterations 5
linear solve U 17991
nonePCG:  Solving for p, Initial residual = 0.0138985, Final residual = 9.88841e-05, No Iterations 288
linear solve p 70006
time step continuity errors : sum local = 2.66913e-09, global = 1.33176e-23, cumulative = -1.75836e-20
nonePCG:  Solving for p, Initial residual = 0.0112113, Final residual = 9.78896e-05, No Iterations 283
linear solve p 69564
time step continuity errors : sum local = 2.59565e-09, global = 1.49099e-22, cumulative = -1.74345e-20
ExecutionTime = 3.21 s  ClockTime = 4 s

Time = 0.001

Courant Number mean: 0.00664431 max: 0.089014
DILUPBiCGStab:  Solving for Ux, Initial residual = 0.0181849, Final residual = 3.29074e-07, No Iterations 5
DILUPBiCGStab:  Solving for Uy, Initial residual = 0.0252128, Final residual = 6.4589e-07, No Iterations 5
DILUPBiCGStab:  Solving for Uz, Initial residual = 0.046517, Final residual = 1.39178e-06, No Iterations 5
linear solve U 18322
nonePCG:  Solving for p, Initial residual = 0.0118843, Final residual = 9.92271e-05, No Iterations 285
linear solve p 80384
time step continuity errors : sum local = 2.69354e-09, global = 5.16574e-22, cumulative = -1.69179e-20
nonePCG:  Solving for p, Initial residual = 0.0096253, Final residual = 9.96231e-05, No Iterations 280
linear solve p 80005
time step continuity errors : sum local = 2.66261e-09, global = 2.04566e-21, cumulative = -1.48722e-20
ExecutionTime = 3.41 s  ClockTime = 5 s

Time = 0.0011

Courant Number mean: 0.00694526 max: 0.0895672
DILUPBiCGStab:  Solving for Ux, Initial residual = 0.0162983, Final residual = 2.95241e-07, No Iterations 5
DILUPBiCGStab:  Solving for Uy, Initial residual = 0.0224937, Final residual = 5.67881e-07, No Iterations 5
DILUPBiCGStab:  Solving for Uz, Initial residual = 0.0420352, Final residual = 1.22691e-06, No Iterations 5
linear solve U 20119
nonePCG:  Solving for p, Initial residual = 0.0102956, Final residual = 9.87005e-05, No Iterations 283
linear solve p 78522
time step continuity errors : sum local = 2.6965e-09, global = -2.01725e-21, cumulative = -1.68895e-20
nonePCG:  Solving for p, Initial residual = 0.00836473, Final residual = 9.51823e-05, No Iterations 278
linear solve p 69859
time step continuity errors : sum local = 2.57569e-09, global = -2.1728e-21, cumulative = -1.90623e-20
ExecutionTime = 3.61 s  ClockTime = 5 s

Time = 0.0012

Courant Number mean: 0.00722373 max: 0.0900355
DILUPBiCGStab:  Solving for Ux, Initial residual = 0.0147482, Final residual = 2.67135e-07, No Iterations 5
DILUPBiCGStab:  Solving for Uy, Initial residual = 0.0202892, Final residual = 5.04771e-07, No Iterations 5
DILUPBiCGStab:  Solving for Uz, Initial residual = 0.0383092, Final residual = 1.09456e-06, No Iterations 5
linear solve U 18454
nonePCG:  Solving for p, Initial residual = 0.00904951, Final residual = 9.76217e-05, No Iterations 279
linear solve p 68835
time step continuity errors : sum local = 2.68351e-09, global = -2.4232e-21, cumulative = -2.14855e-20
nonePCG:  Solving for p, Initial residual = 0.00738923, Final residual = 9.8681e-05, No Iterations 275
linear solve p 66614
time step continuity errors : sum local = 2.67913e-09, global = -2.4858e-21, cumulative = -2.39713e-20
ExecutionTime = 3.79 s  ClockTime = 5 s

Time = 0.0013

Courant Number mean: 0.00748295 max: 0.0904386
DILUPBiCGStab:  Solving for Ux, Initial residual = 0.0134669, Final residual = 2.43139e-07, No Iterations 5
DILUPBiCGStab:  Solving for Uy, Initial residual = 0.018466, Final residual = 4.52529e-07, No Iterations 5
DILUPBiCGStab:  Solving for Uz, Initial residual = 0.0351674, Final residual = 9.8615e-07, No Iterations 5
linear solve U 18317
nonePCG:  Solving for p, Initial residual = 0.0080965, Final residual = 9.7452e-05, No Iterations 276
linear solve p 69143
time step continuity errors : sum local = 2.69183e-09, global = -2.19707e-21, cumulative = -2.61684e-20
nonePCG:  Solving for p, Initial residual = 0.00663111, Final residual = 9.944e-05, No Iterations 271
linear solve p 66322
time step continuity errors : sum local = 2.71384e-09, global = -2.53225e-21, cumulative = -2.87006e-20
ExecutionTime = 3.97 s  ClockTime = 5 s

Time = 0.0014

Courant Number mean: 0.00772776 max: 0.0907902
DILUPBiCGStab:  Solving for Ux, Initial residual = 0.0123794, Final residual = 2.22327e-07, No Iterations 5
DILUPBiCGStab:  Solving for Uy, Initial residual = 0.0169331, Final residual = 4.08627e-07, No Iterations 5
DILUPBiCGStab:  Solving for Uz, Initial residual = 0.0324814, Final residual = 8.95786e-07, No Iterations 5
linear solve U 18043
nonePCG:  Solving for p, Initial residual = 0.00728135, Final residual = 9.83153e-05, No Iterations 274
linear solve p 67587
time step continuity errors : sum local = 2.72422e-09, global = -2.72496e-21, cumulative = -3.14256e-20
nonePCG:  Solving for p, Initial residual = 0.00598057, Final residual = 9.73157e-05, No Iterations 270
linear solve p 66726
time step continuity errors : sum local = 2.67553e-09, global = -1.79963e-21, cumulative = -3.32252e-20
ExecutionTime = 4.15 s  ClockTime = 5 s

Time = 0.0015

Courant Number mean: 0.00795854 max: 0.0911005
DILUPBiCGStab:  Solving for Ux, Initial residual = 0.011447, Final residual = 2.04116e-07, No Iterations 5
DILUPBiCGStab:  Solving for Uy, Initial residual = 0.0156265, Final residual = 3.7129e-07, No Iterations 5
DILUPBiCGStab:  Solving for Uz, Initial residual = 0.0301599, Final residual = 8.19146e-07, No Iterations 5
linear solve U 17902
nonePCG:  Solving for p, Initial residual = 0.00658156, Final residual = 9.81285e-05, No Iterations 271
linear solve p 69000
time step continuity errors : sum local = 2.72909e-09, global = -3.09308e-21, cumulative = -3.63183e-20
nonePCG:  Solving for p, Initial residual = 0.00542741, Final residual = 9.87953e-05, No Iterations 266
linear solve p 71776
time step continuity errors : sum local = 2.72421e-09, global = -1.39781e-21, cumulative = -3.77161e-20
ExecutionTime = 4.34 s  ClockTime = 5 s

Time = 0.0016

Courant Number mean: 0.00817642 max: 0.0913769
DILUPBiCGStab:  Solving for Ux, Initial residual = 0.0106406, Final residual = 1.88147e-07, No Iterations 5
DILUPBiCGStab:  Solving for Uy, Initial residual = 0.0144996, Final residual = 3.39252e-07, No Iterations 5
DILUPBiCGStab:  Solving for Uz, Initial residual = 0.0281346, Final residual = 7.53864e-07, No Iterations 5
linear solve U 21914
nonePCG:  Solving for p, Initial residual = 0.00603353, Final residual = 9.82127e-05, No Iterations 271
linear solve p 73830
time step continuity errors : sum local = 2.74056e-09, global = -3.01067e-21, cumulative = -4.07268e-20
nonePCG:  Solving for p, Initial residual = 0.00496622, Final residual = 9.48179e-05, No Iterations 265
linear solve p 71431
time step continuity errors : sum local = 2.63713e-09, global = -2.01907e-21, cumulative = -4.27458e-20
ExecutionTime = 4.53 s  ClockTime = 6 s

Time = 0.0017

Courant Number mean: 0.00838242 max: 0.0916251
DILUPBiCGStab:  Solving for Ux, Initial residual = 0.00993254, Final residual = 1.74057e-07, No Iterations 5
DILUPBiCGStab:  Solving for Uy, Initial residual = 0.0135178, Final residual = 3.11546e-07, No Iterations 5
DILUPBiCGStab:  Solving for Uz, Initial residual = 0.0263519, Final residual = 6.96736e-07, No Iterations 5
linear solve U 18421
nonePCG:  Solving for p, Initial residual = 0.00548984, Final residual = 9.96958e-05, No Iterations 266
linear solve p 70923
time step continuity errors : sum local = 2.78462e-09, global = -2.8455e-21, cumulative = -4.55913e-20
nonePCG:  Solving for p, Initial residual = 0.00454923, Final residual = 9.63767e-05, No Iterations 263
linear solve p 70069
time step continuity errors : sum local = 2.68506e-09, global = -1.27086e-21, cumulative = -4.68622e-20
ExecutionTime = 4.72 s  ClockTime = 6 s

Time = 0.0018

Courant Number mean: 0.00857949 max: 0.0918496
DILUPBiCGStab:  Solving for Ux, Initial residual = 0.00931113, Final residual = 1.61588e-07, No Iterations 5
DILUPBiCGStab:  Solving for Uy, Initial residual = 0.012655, Final residual = 2.87399e-07, No Iterations 5
DILUPBiCGStab:  Solving for Uz, Initial residual = 0.0247717, Final residual = 6.47283e-07, No Iterations 5
linear solve U 18232
nonePCG:  Solving for p, Initial residual = 0.00513515, Final residual = 9.95751e-05, No Iterations 264
linear solve p 64589
time step continuity errors : sum local = 2.78955e-09, global = -4.07407e-22, cumulative = -4.72696e-20
nonePCG:  Solving for p, Initial residual = 0.00426368, Final residual = 9.03789e-05, No Iterations 262
linear solve p 70149
time step continuity errors : sum local = 2.54558e-09, global = -3.06388e-21, cumulative = -5.03335e-20
ExecutionTime = 4.89 s  ClockTime = 6 s

Time = 0.0019

Courant Number mean: 0.00876806 max: 0.0920539
DILUPBiCGStab:  Solving for Ux, Initial residual = 0.00875826, Final residual = 1.50485e-07, No Iterations 5
DILUPBiCGStab:  Solving for Uy, Initial residual = 0.0118907, Final residual = 2.66211e-07, No Iterations 5
DILUPBiCGStab:  Solving for Uz, Initial residual = 0.023361, Final residual = 6.03406e-07, No Iterations 5
linear solve U 18456
nonePCG:  Solving for p, Initial residual = 0.00475306, Final residual = 9.87393e-05, No Iterations 265
linear solve p 64668
time step continuity errors : sum local = 2.77547e-09, global = -3.21595e-21, cumulative = -5.35494e-20
nonePCG:  Solving for p, Initial residual = 0.00394539, Final residual = 9.69478e-05, No Iterations 259
linear solve p 65646
time step continuity errors : sum local = 2.71584e-09, global = -3.50412e-21, cumulative = -5.70536e-20
ExecutionTime = 5.07 s  ClockTime = 6 s

Time = 0.002

Courant Number mean: 0.00894842 max: 0.0922409
DILUPBiCGStab:  Solving for Ux, Initial residual = 0.00826112, Final residual = 1.40546e-07, No Iterations 5
DILUPBiCGStab:  Solving for Uy, Initial residual = 0.011209, Final residual = 2.47526e-07, No Iterations 5
DILUPBiCGStab:  Solving for Uz, Initial residual = 0.0220947, Final residual = 5.64409e-07, No Iterations 5
linear solve U 18272
nonePCG:  Solving for p, Initial residual = 0.0043962, Final residual = 9.91219e-05, No Iterations 263
linear solve p 65584
time step continuity errors : sum local = 2.79092e-09, global = -3.46192e-21, cumulative = -6.05155e-20
nonePCG:  Solving for p, Initial residual = 0.00365204, Final residual = 9.78697e-05, No Iterations 255
linear solve p 63542
time step continuity errors : sum local = 2.74573e-09, global = -5.14918e-21, cumulative = -6.56647e-20
ExecutionTime = 5.24 s  ClockTime = 6 s

End

Finalising parallel run
================================================================================
